
*****
***** Welcome to the Xyce(TM) Parallel Electronic Simulator
*****
***** This is version Xyce DEVELOPMENT-202409220015-(Public_Release-7.8.0-128-g5b74b0d5)-opensource
***** Date: Sun Dec 15 00:39:39 CET 2024


***** Executing netlist /ALL/git_olisnr/TO_Dec2024/RF_amplifiers/design_data/xschem/shunt_regulator/simulation/SHUNT_3V1_dc_mossf.spice

***** Reading and parsing netlist...
Netlist warning in file
 /home/ich/share/pdk/ihp-sg13g2/libs.tech/xyce/models/sg13g2_moshv_parm.lib at
 or near line 212
 No model parameter MUNQSO found for model SG13G2_HV_PMOS_PSP of type
 PSP103_VA, parameter ignored.
Netlist warning in file
 /home/ich/share/pdk/ihp-sg13g2/libs.tech/xyce/models/sg13g2_moshv_parm.lib at
 or near line 212
 No model parameter SWNQS found for model SG13G2_HV_PMOS_PSP of type
 PSP103_VA, parameter ignored.
Netlist warning in file
 /home/ich/share/pdk/ihp-sg13g2/libs.tech/xyce/models/sg13g2_hbt_mod.lib at or
 near line 425
 No model parameter TRM1 found for model PNPMPA_MOD of type PNP, parameter
 ignored.
Netlist warning in file
 /home/ich/share/pdk/ihp-sg13g2/libs.tech/xyce/models/sg13g2_hbt_mod.lib at or
 near line 425
 No model parameter TRM2 found for model PNPMPA_MOD of type PNP, parameter
 ignored.
Netlist warning in file
 /home/ich/share/pdk/ihp-sg13g2/libs.tech/xyce/models/sg13g2_hbt_mod.lib at or
 near line 425
 No model parameter TRC1 found for model PNPMPA_MOD of type PNP, parameter
 ignored.
Netlist warning in file
 /home/ich/share/pdk/ihp-sg13g2/libs.tech/xyce/models/sg13g2_hbt_mod.lib at or
 near line 425
 No model parameter TRC2 found for model PNPMPA_MOD of type PNP, parameter
 ignored.
Netlist warning in file
 /home/ich/share/pdk/ihp-sg13g2/libs.tech/xyce/models/sg13g2_hbt_mod.lib at or
 near line 425
 No model parameter TRE1 found for model PNPMPA_MOD of type PNP, parameter
 ignored.
Netlist warning in file
 /home/ich/share/pdk/ihp-sg13g2/libs.tech/xyce/models/sg13g2_hbt_mod.lib at or
 near line 425
 No model parameter TRE2 found for model PNPMPA_MOD of type PNP, parameter
 ignored.
Netlist warning in file
 /home/ich/share/pdk/ihp-sg13g2/libs.tech/xyce/models/sg13g2_moshv_parm.lib at
 or near line 62
 No model parameter MUNQSO found for model SG13G2_HV_NMOS_PSP of type
 PSP103_VA, parameter ignored.
Netlist warning in file
 /home/ich/share/pdk/ihp-sg13g2/libs.tech/xyce/models/sg13g2_moshv_parm.lib at
 or near line 62
 No model parameter SWNQS found for model SG13G2_HV_NMOS_PSP of type
 PSP103_VA, parameter ignored.
***** Setting up topology...

Netlist warning: Voltage Node (REFADJ) connected to only 1 device Terminal
***** Device Count Summary ...
       C level 1 (Capacitor)                    6
       PSP103_VA level 1 (ADMS PSP103_VA)      35
       Q level 1 (Bipolar Junction Transistor)  1
       R level 1 (Resistor)                    19
       V level 1 (Independent Voltage Source)  29
       ------------------------------------------
       Total Devices                           90
***** Setting up matrix structure...
***** Number of Unknowns = 186
***** Initializing...


***** Solution Summary *****
	Number Successful Steps Taken:		186
	Number Failed Steps Attempted:		12
	Number Jacobians Evaluated:		140329
	Number Linear Solves:			140329
	Number Failed Linear Solves:		0
	Number Residual Evaluations:		143479
	Number Nonlinear Convergence Failures:	12
	Total Residual Load Time:		43.0013 seconds
	Total Jacobian Load Time:		3.30058 seconds
	Total Linear Solution Time:		9.08037 seconds

	Failed DC sweep steps:		
		DC Step # 1
		DC Step # 2
		DC Step # 3
		DC Step # 19
		DC Step # 1
		DC Step # 2
		DC Step # 3
		DC Step # 19
		DC Step # 19
		DC Step # 19
		DC Step # 19
		DC Step # 20

***** Total Simulation Solvers Run Time: 70.1949 seconds
***** Total Elapsed Run Time:            70.6849 seconds
*****
***** End of Xyce(TM) Simulation
*****

Timing summary of 1 processor
                 Stats                   Count        CPU Time              Wall Time
---------------------------------------- ------ --------------------- ---------------------
Xyce                                          1     1:04.237 (100.0%)     1:10.688 (100.0%)
  Analysis                                    1     1:04.072 (99.74%)     1:10.195 (99.30%)
    Step                                      1     1:04.072 (99.74%)     1:10.195 (99.30%)
      DC Sweep                                6     1:04.070 (99.74%)     1:10.181 (99.28%)
        Solve                               198     1:04.058 (99.72%)     1:10.169 (99.27%)
          Residual                       143479       41.362 (64.39%)       46.455 (65.72%)
          Jacobian                       140329        3.394 ( 5.28%)        3.542 ( 5.01%)
          Linear Solve                   140329        9.045 (14.08%)        9.429 (13.34%)
        Failed Steps                         12        0.000 (<0.01%)        0.000 (<0.01%)
        Successful Step                     186        0.006 (<0.01%)        0.006 (<0.01%)
  Netlist Import                              1        0.149 ( 0.23%)        0.438 ( 0.62%)
    Parse Context                             1        0.024 ( 0.04%)        0.051 ( 0.07%)
    Distribute Devices                        1        0.122 ( 0.19%)        0.357 ( 0.50%)
    Verify Devices                            1        0.000 ( 0.00%)        0.000 (<0.01%)
    Instantiate                               1        0.001 (<0.01%)        0.028 ( 0.04%)
  Late Initialization                         1        0.011 ( 0.02%)        0.046 ( 0.07%)
    Global Indices                            1        0.001 (<0.01%)        0.001 (<0.01%)
  Setup Matrix Structure                      1        0.001 (<0.01%)        0.001 (<0.01%)

