
*****
***** Welcome to the Xyce(TM) Parallel Electronic Simulator
*****
***** This is version Xyce DEVELOPMENT-202409220015-(Public_Release-7.8.0-128-g5b74b0d5)-opensource
***** Date: Sun Dec 15 00:39:39 CET 2024


***** Executing netlist /ALL/git_olisnr/TO_Dec2024/RF_amplifiers/design_data/xschem/shunt_regulator/simulation/SHUNT_3V1_mostt.spice

***** Reading and parsing netlist...
Netlist warning in file
 /home/ich/share/pdk/ihp-sg13g2/libs.tech/xyce/models/sg13g2_moshv_parm.lib at
 or near line 212
 No model parameter MUNQSO found for model SG13G2_HV_PMOS_PSP of type
 PSP103_VA, parameter ignored.
Netlist warning in file
 /home/ich/share/pdk/ihp-sg13g2/libs.tech/xyce/models/sg13g2_moshv_parm.lib at
 or near line 212
 No model parameter SWNQS found for model SG13G2_HV_PMOS_PSP of type
 PSP103_VA, parameter ignored.
Netlist warning in file
 /home/ich/share/pdk/ihp-sg13g2/libs.tech/xyce/models/sg13g2_hbt_mod.lib at or
 near line 425
 No model parameter TRM1 found for model PNPMPA_MOD of type PNP, parameter
 ignored.
Netlist warning in file
 /home/ich/share/pdk/ihp-sg13g2/libs.tech/xyce/models/sg13g2_hbt_mod.lib at or
 near line 425
 No model parameter TRM2 found for model PNPMPA_MOD of type PNP, parameter
 ignored.
Netlist warning in file
 /home/ich/share/pdk/ihp-sg13g2/libs.tech/xyce/models/sg13g2_hbt_mod.lib at or
 near line 425
 No model parameter TRC1 found for model PNPMPA_MOD of type PNP, parameter
 ignored.
Netlist warning in file
 /home/ich/share/pdk/ihp-sg13g2/libs.tech/xyce/models/sg13g2_hbt_mod.lib at or
 near line 425
 No model parameter TRC2 found for model PNPMPA_MOD of type PNP, parameter
 ignored.
Netlist warning in file
 /home/ich/share/pdk/ihp-sg13g2/libs.tech/xyce/models/sg13g2_hbt_mod.lib at or
 near line 425
 No model parameter TRE1 found for model PNPMPA_MOD of type PNP, parameter
 ignored.
Netlist warning in file
 /home/ich/share/pdk/ihp-sg13g2/libs.tech/xyce/models/sg13g2_hbt_mod.lib at or
 near line 425
 No model parameter TRE2 found for model PNPMPA_MOD of type PNP, parameter
 ignored.
Netlist warning in file
 /home/ich/share/pdk/ihp-sg13g2/libs.tech/xyce/models/sg13g2_moshv_parm.lib at
 or near line 62
 No model parameter MUNQSO found for model SG13G2_HV_NMOS_PSP of type
 PSP103_VA, parameter ignored.
Netlist warning in file
 /home/ich/share/pdk/ihp-sg13g2/libs.tech/xyce/models/sg13g2_moshv_parm.lib at
 or near line 62
 No model parameter SWNQS found for model SG13G2_HV_NMOS_PSP of type
 PSP103_VA, parameter ignored.
***** Setting up topology...

Netlist warning: Voltage Node (REFADJ) connected to only 1 device Terminal
***** Device Count Summary ...
       C level 1 (Capacitor)                    6
       PSP103_VA level 1 (ADMS PSP103_VA)      35
       Q level 1 (Bipolar Junction Transistor)  1
       R level 1 (Resistor)                    19
       V level 1 (Independent Voltage Source)  29
       ------------------------------------------
       Total Devices                           90
***** Setting up matrix structure...
***** Number of Unknowns = 186
***** Initializing...

------------------------------------------------------------
Operating point information:
Number of ADMS PSP103_VA models: 35
          name X12:X12:XM10:SG13G2_HV_PMOS_PSPX12:X12:XM1:SG13G2_HV_PMOS_PSPX12:X12:XM2:SG13G2_HV_NMOS_PSPX12:X12:XM3:SG13G2_HV_NMOS_PSPX12:X12:XM4:SG13G2_HV_PMOS_PSPX12:X12:XM5:SG13G2_HV_NMOS_PSPX12:X12:XM6:SG13G2_HV_NMOS_PSP
X12:X12:XM7:SG13G2_HV_PMOS_PSPX12:X12:XM8:SG13G2_HV_PMOS_PSPX12:X12:XM9:SG13G2_HV_PMOS_PSPX12:XM10:SG13G2_HV_PMOS_PSPX12:XM11:SG13G2_HV_PMOS_PSPX12:XM12:SG13G2_HV_PMOS_PSPX12:XM13:SG13G2_HV_NMOS_PSPX12:XM14:SG13G2_HV_PMOS_PSP
X12:XM15:SG13G2_HV_PMOS_PSPX12:XM16:SG13G2_HV_NMOS_PSPX12:XM1:SG13G2_HV_PMOS_PSPX12:XM2:SG13G2_HV_PMOS_PSPX12:XM3:SG13G2_HV_NMOS_PSPX12:XM4:SG13G2_HV_NMOS_PSPX12:XM5:SG13G2_HV_PMOS_PSPX12:XM6:SG13G2_HV_PMOS_PSP
X12:XM7:SG13G2_HV_NMOS_PSPX12:XM8:SG13G2_HV_NMOS_PSPX12:XM9:SG13G2_HV_PMOS_PSPXM11:SG13G2_HV_PMOS_PSPXM12:SG13G2_HV_NMOS_PSPXM13:SG13G2_HV_PMOS_PSPXM14:SG13G2_HV_PMOS_PSPXM15:SG13G2_HV_NMOS_PSP
XM1:SG13G2_HV_PMOS_PSPXM6:SG13G2_HV_NMOS_PSPXM7:SG13G2_HV_NMOS_PSPXM8:SG13G2_HV_PMOS_PSP
          type       PSP103_VA      PSP103_VA      PSP103_VA      PSP103_VA      PSP103_VA      PSP103_VA      PSP103_VA
      PSP103_VA      PSP103_VA      PSP103_VA      PSP103_VA      PSP103_VA      PSP103_VA      PSP103_VA      PSP103_VA
      PSP103_VA      PSP103_VA      PSP103_VA      PSP103_VA      PSP103_VA      PSP103_VA      PSP103_VA      PSP103_VA
      PSP103_VA      PSP103_VA      PSP103_VA      PSP103_VA      PSP103_VA      PSP103_VA      PSP103_VA      PSP103_VA
      PSP103_VA      PSP103_VA      PSP103_VA      PSP103_VA
         level               1              1              1              1              1              1              1
              1              1              1              1              1              1              1              1
              1              1              1              1              1              1              1              1
              1              1              1              1              1              1              1              1
              1              1              1              1
            DTA              0              0              0              0              0              0              0              0              0              0              0              0              0              0              0              0              0              0              0              0              0              0              0              0              0              0              0              0              0              0              0              0              0              0              0
         FJUNQD           0.03           0.03           0.03           0.03           0.03           0.03           0.03           0.03           0.03           0.03           0.03           0.03           0.03           0.03           0.03           0.03           0.03           0.03           0.03           0.03           0.03           0.03           0.03           0.03           0.03           0.03           0.03           0.03           0.03           0.03           0.03           0.03           0.03           0.03           0.03
       VJUNREFD            2.5            2.5            2.5            2.5            2.5            2.5            2.5            2.5            2.5            2.5            2.5            2.5            2.5            2.5            2.5            2.5            2.5            2.5            2.5            2.5            2.5            2.5            2.5            2.5            2.5            2.5            2.5            2.5            2.5            2.5            2.5            2.5            2.5            2.5            2.5
          FJUNQ           0.03           0.03           0.03           0.03           0.03           0.03           0.03           0.03           0.03           0.03           0.03           0.03           0.03           0.03           0.03           0.03           0.03           0.03           0.03           0.03           0.03           0.03           0.03           0.03           0.03           0.03           0.03           0.03           0.03           0.03           0.03           0.03           0.03           0.03           0.03
       SWJUNEXP              0              0              0              0              0              0              0              0              0              0              0              0              0              0              0              0              0              0              0              0              0              0              0              0              0              0              0              0              0              0              0              0              0              0              0

        PBRSTID              4              4              4              4              4              4              4              4              4              4              4              4              4              4              4              4              4              4              4              4              4              4              4              4              4              4              4              4              4              4              4              4              4              4              4
        PBRBOTD              4              4              4              4              4              4              4              4              4              4              4              4              4              4              4              4              4              4              4              4              4              4              4              4              4              4              4              4              4              4              4              4              4              4              4
        VBRGATD             10             10             10             10             10             10             10             10             10             10             10             10             10             10             10             10             10             10             10             10             10             10             10             10             10             10             10             10             10             10             10             10             10             10             10
        VBRSTID             10             10             10             10             10             10             10             10             10             10             10             10             10             10             10             10             10             10             10             10             10             10             10             10             10             10             10             10             10             10             10             10             10             10             10
        VBRBOTD             10             10             10             10             10             10             10             10             10             10             10             10             10             10             10             10             10             10             10             10             10             10             10             10             10             10             10             10             10             10             10             10             10             10             10
     STFBBTSTID         -0.001         -0.001         -0.001         -0.001         -0.001         -0.001         -0.001         -0.001         -0.001         -0.001         -0.001         -0.001         -0.001         -0.001         -0.001         -0.001         -0.001         -0.001         -0.001         -0.001         -0.001         -0.001         -0.001         -0.001         -0.001         -0.001         -0.001         -0.001         -0.001         -0.001         -0.001         -0.001         -0.001         -0.001         -0.001
     STFBBTBOTD         -0.001         -0.001         -0.001         -0.001         -0.001         -0.001         -0.001         -0.001         -0.001         -0.001         -0.001         -0.001         -0.001         -0.001         -0.001         -0.001         -0.001         -0.001         -0.001         -0.001         -0.001         -0.001         -0.001         -0.001         -0.001         -0.001         -0.001         -0.001         -0.001         -0.001         -0.001         -0.001         -0.001         -0.001         -0.001
      FBBTRSTID          1e+09          1e+09          1e+09          1e+09          1e+09          1e+09          1e+09          1e+09          1e+09          1e+09          1e+09          1e+09          1e+09          1e+09          1e+09          1e+09          1e+09          1e+09          1e+09          1e+09          1e+09          1e+09          1e+09          1e+09          1e+09          1e+09          1e+09          1e+09          1e+09          1e+09          1e+09          1e+09          1e+09          1e+09          1e+09

      FBBTRBOTD          1e+09          1e+09          1e+09          1e+09          1e+09          1e+09          1e+09          1e+09          1e+09          1e+09          1e+09          1e+09          1e+09          1e+09          1e+09          1e+09          1e+09          1e+09          1e+09          1e+09          1e+09          1e+09          1e+09          1e+09          1e+09          1e+09          1e+09          1e+09          1e+09          1e+09          1e+09          1e+09          1e+09          1e+09          1e+09
       CBBTSTID          1e-18          1e-18          1e-18          1e-18          1e-18          1e-18          1e-18          1e-18          1e-18          1e-18          1e-18          1e-18          1e-18          1e-18          1e-18          1e-18          1e-18          1e-18          1e-18          1e-18          1e-18          1e-18          1e-18          1e-18          1e-18          1e-18          1e-18          1e-18          1e-18          1e-18          1e-18          1e-18          1e-18          1e-18          1e-18
       CBBTBOTD          1e-12          1e-12          1e-12          1e-12          1e-12          1e-12          1e-12          1e-12          1e-12          1e-12          1e-12          1e-12          1e-12          1e-12          1e-12          1e-12          1e-12          1e-12          1e-12          1e-12          1e-12          1e-12          1e-12          1e-12          1e-12          1e-12          1e-12          1e-12          1e-12          1e-12          1e-12          1e-12          1e-12          1e-12          1e-12
    MEFFTATGATD           0.25           0.25           0.25           0.25           0.25           0.25           0.25           0.25           0.25           0.25           0.25           0.25           0.25           0.25           0.25           0.25           0.25           0.25           0.25           0.25           0.25           0.25           0.25           0.25           0.25           0.25           0.25           0.25           0.25           0.25           0.25           0.25           0.25           0.25           0.25
       CTATGATD         0.0001         0.0001         0.0001         0.0001         0.0001         0.0001         0.0001         0.0001         0.0001         0.0001         0.0001         0.0001         0.0001         0.0001         0.0001         0.0001         0.0001         0.0001         0.0001         0.0001         0.0001         0.0001         0.0001         0.0001         0.0001         0.0001         0.0001         0.0001         0.0001         0.0001         0.0001         0.0001         0.0001         0.0001         0.0001
       CTATSTID         0.0001         0.0001         0.0001         0.0001         0.0001         0.0001         0.0001         0.0001         0.0001         0.0001         0.0001         0.0001         0.0001         0.0001         0.0001         0.0001         0.0001         0.0001         0.0001         0.0001         0.0001         0.0001         0.0001         0.0001         0.0001         0.0001         0.0001         0.0001         0.0001         0.0001         0.0001         0.0001         0.0001         0.0001         0.0001
       XJUNGATD          1e-07          1e-07          1e-07          1e-07          1e-07          1e-07          1e-07          1e-07          1e-07          1e-07          1e-07          1e-07          1e-07          1e-07          1e-07          1e-07          1e-07          1e-07          1e-07          1e-07          1e-07          1e-07          1e-07          1e-07          1e-07          1e-07          1e-07          1e-07          1e-07          1e-07          1e-07          1e-07          1e-07          1e-07          1e-07
       XJUNSTID          1e-07          1e-07          1e-07          1e-07          1e-07          1e-07          1e-07          1e-07          1e-07          1e-07          1e-07          1e-07          1e-07          1e-07          1e-07          1e-07          1e-07          1e-07          1e-07          1e-07          1e-07          1e-07          1e-07          1e-07          1e-07          1e-07          1e-07          1e-07          1e-07          1e-07          1e-07          1e-07          1e-07          1e-07          1e-07

       CSRHGATD         0.0001         0.0001         0.0001         0.0001         0.0001         0.0001         0.0001         0.0001         0.0001         0.0001         0.0001         0.0001         0.0001         0.0001         0.0001         0.0001         0.0001         0.0001         0.0001         0.0001         0.0001         0.0001         0.0001         0.0001         0.0001         0.0001         0.0001         0.0001         0.0001         0.0001         0.0001         0.0001         0.0001         0.0001         0.0001
     IDSATRGATD          1e-18          1e-18          1e-18          1e-18          1e-18          1e-18          1e-18          1e-18          1e-18          1e-18          1e-18          1e-18          1e-18          1e-18          1e-18          1e-18          1e-18          1e-18          1e-18          1e-18          1e-18          1e-18          1e-18          1e-18          1e-18          1e-18          1e-18          1e-18          1e-18          1e-18          1e-18          1e-18          1e-18          1e-18          1e-18
       PHIGSTID           1.16           1.16           1.16           1.16           1.16           1.16           1.16           1.16           1.16           1.16           1.16           1.16           1.16           1.16           1.16           1.16           1.16           1.16           1.16           1.16           1.16           1.16           1.16           1.16           1.16           1.16           1.16           1.16           1.16           1.16           1.16           1.16           1.16           1.16           1.16
       PHIGBOTD           1.16           1.16           1.16           1.16           1.16           1.16           1.16           1.16           1.16           1.16           1.16           1.16           1.16           1.16           1.16           1.16           1.16           1.16           1.16           1.16           1.16           1.16           1.16           1.16           1.16           1.16           1.16           1.16           1.16           1.16           1.16           1.16           1.16           1.16           1.16
          PGATD            0.5            0.5            0.5            0.5            0.5            0.5            0.5            0.5            0.5            0.5            0.5            0.5            0.5            0.5            0.5            0.5            0.5            0.5            0.5            0.5            0.5            0.5            0.5            0.5            0.5            0.5            0.5            0.5            0.5            0.5            0.5            0.5            0.5            0.5            0.5
       VBIRGATD              1              1              1              1              1              1              1              1              1              1              1              1              1              1              1              1              1              1              1              1              1              1              1              1              1              1              1              1              1              1              1              1              1              1              1
       VBIRSTID              1              1              1              1              1              1              1              1              1              1              1              1              1              1              1              1              1              1              1              1              1              1              1              1              1              1              1              1              1              1              1              1              1              1              1
       CJORGATD          1e-09          1e-09          1e-09          1e-09          1e-09          1e-09          1e-09          1e-09          1e-09          1e-09          1e-09          1e-09          1e-09          1e-09          1e-09          1e-09          1e-09          1e-09          1e-09          1e-09          1e-09          1e-09          1e-09          1e-09          1e-09          1e-09          1e-09          1e-09          1e-09          1e-09          1e-09          1e-09          1e-09          1e-09          1e-09

       CJORSTID          1e-09          1e-09          1e-09          1e-09          1e-09          1e-09          1e-09          1e-09          1e-09          1e-09          1e-09          1e-09          1e-09          1e-09          1e-09          1e-09          1e-09          1e-09          1e-09          1e-09          1e-09          1e-09          1e-09          1e-09          1e-09          1e-09          1e-09          1e-09          1e-09          1e-09          1e-09          1e-09          1e-09          1e-09          1e-09
       CJORBOTD          0.001          0.001          0.001          0.001          0.001          0.001          0.001          0.001          0.001          0.001          0.001          0.001          0.001          0.001          0.001          0.001          0.001          0.001          0.001          0.001          0.001          0.001          0.001          0.001          0.001          0.001          0.001          0.001          0.001          0.001          0.001          0.001          0.001          0.001          0.001
         PBRGAT              4              4              4              4              4              4              4              4              4              4              4              4              4              4              4              4              4              4              4              4              4              4              4              4              4              4              4              4              4              4              4              4              4              4              4
         PBRSTI              4              4              4              4              4              4              4              4              4              4              4              4              4              4              4              4              4              4              4              4              4              4              4              4              4              4              4              4              4              4              4              4              4              4              4
       CBBTGATD          1e-18          1e-18          1e-18          1e-18          1e-18          1e-18          1e-18          1e-18          1e-18          1e-18          1e-18          1e-18          1e-18          1e-18          1e-18          1e-18          1e-18          1e-18          1e-18          1e-18          1e-18          1e-18          1e-18          1e-18          1e-18          1e-18          1e-18          1e-18          1e-18          1e-18          1e-18          1e-18          1e-18          1e-18          1e-18
         PBRBOT              4              4              4              4              4              4              4              4              4              4              4              4              4              4              4              4              4              4              4              4              4              4              4              4              4              4              4              4              4              4              4              4              4              4              4
         VBRSTI             10             10             10             10             10             10             10             10             10             10             10             10             10             10             10             10             10             10             10             10             10             10             10             10             10             10             10             10             10             10             10             10             10             10             10
         VBRBOT             10             10             10             10             10             10             10             10             10             10             10             10             10             10             10             10             10             10             10             10             10             10             10             10             10             10             10             10             10             10             10             10             10             10             10

      STFBBTSTI         -0.001         -0.001         -0.001         -0.001         -0.001         -0.001         -0.001         -0.001         -0.001         -0.001         -0.001         -0.001         -0.001         -0.001         -0.001         -0.001         -0.001         -0.001         -0.001         -0.001         -0.001         -0.001         -0.001         -0.001         -0.001         -0.001         -0.001         -0.001         -0.001         -0.001         -0.001         -0.001         -0.001         -0.001         -0.001
      STFBBTBOT         -0.001         -0.001         -0.001         -0.001         -0.001         -0.001         -0.001         -0.001         -0.001         -0.001         -0.001         -0.001         -0.001         -0.001         -0.001         -0.001         -0.001         -0.001         -0.001         -0.001         -0.001         -0.001         -0.001         -0.001         -0.001         -0.001         -0.001         -0.001         -0.001         -0.001         -0.001         -0.001         -0.001         -0.001         -0.001
       FBBTRGAT          1e+09          1e+09          1e+09          1e+09          1e+09          1e+09          1e+09          1e+09          1e+09          1e+09          1e+09          1e+09          1e+09          1e+09          1e+09          1e+09          1e+09          1e+09          1e+09          1e+09          1e+09          1e+09          1e+09          1e+09          1e+09          1e+09          1e+09          1e+09          1e+09          1e+09          1e+09          1e+09          1e+09          1e+09          1e+09
        CBBTBOT          1e-12          1e-12          1e-12          1e-12          1e-12          1e-12          1e-12          1e-12          1e-12          1e-12          1e-12          1e-12          1e-12          1e-12          1e-12          1e-12          1e-12          1e-12          1e-12          1e-12          1e-12          1e-12          1e-12          1e-12          1e-12          1e-12          1e-12          1e-12          1e-12          1e-12          1e-12          1e-12          1e-12          1e-12          1e-12
     MEFFTATGAT           0.25           0.25           0.25           0.25           0.25           0.25           0.25           0.25           0.25           0.25           0.25           0.25           0.25           0.25           0.25           0.25           0.25           0.25           0.25           0.25           0.25           0.25           0.25           0.25           0.25           0.25           0.25           0.25           0.25           0.25           0.25           0.25           0.25           0.25           0.25
     MEFFTATSTI           0.25           0.25           0.25           0.25           0.25           0.25           0.25           0.25           0.25           0.25           0.25           0.25           0.25           0.25           0.25           0.25           0.25           0.25           0.25           0.25           0.25           0.25           0.25           0.25           0.25           0.25           0.25           0.25           0.25           0.25           0.25           0.25           0.25           0.25           0.25
     MEFFTATBOT           0.25           0.25           0.25           0.25           0.25           0.25           0.25           0.25           0.25           0.25           0.25           0.25           0.25           0.25           0.25           0.25           0.25           0.25           0.25           0.25           0.25           0.25           0.25           0.25           0.25           0.25           0.25           0.25           0.25           0.25           0.25           0.25           0.25           0.25           0.25
        CTATGAT         0.0001         0.0001         0.0001         0.0001         0.0001         0.0001         0.0001         0.0001         0.0001         0.0001         0.0001         0.0001         0.0001         0.0001         0.0001         0.0001         0.0001         0.0001         0.0001         0.0001         0.0001         0.0001         0.0001         0.0001         0.0001         0.0001         0.0001         0.0001         0.0001         0.0001         0.0001         0.0001         0.0001         0.0001         0.0001

        CTATBOT            100            100            100            100            100            100            100            100            100            100            100            100            100            100            100            100            100            100            100            100            100            100            100            100            100            100            100            100            100            100            100            100            100            100            100
        CSRHSTI         0.0001         0.0001         0.0001         0.0001         0.0001         0.0001         0.0001         0.0001         0.0001         0.0001         0.0001         0.0001         0.0001         0.0001         0.0001         0.0001         0.0001         0.0001         0.0001         0.0001         0.0001         0.0001         0.0001         0.0001         0.0001         0.0001         0.0001         0.0001         0.0001         0.0001         0.0001         0.0001         0.0001         0.0001         0.0001
      IDSATRSTI     3.6127e-15     3.6127e-15     4.0612e-15     4.0612e-15     3.6127e-15     4.0612e-15     4.0612e-15     3.6127e-15     3.6127e-15     3.6127e-15     3.6127e-15     3.6127e-15     3.6127e-15     4.0612e-15     3.6127e-15     3.6127e-15     4.0612e-15     3.6127e-15     3.6127e-15     4.0612e-15     4.0612e-15     3.6127e-15     3.6127e-15     4.0612e-15     4.0612e-15     3.6127e-15     3.6127e-15     4.0612e-15     3.6127e-15     3.6127e-15     4.0612e-15     3.6127e-15     4.0612e-15     4.0612e-15     3.6127e-15
           PSTI        0.22409        0.22409        0.16571        0.16571        0.22409        0.16571        0.16571        0.22409        0.22409        0.22409        0.22409        0.22409        0.22409        0.16571        0.22409        0.22409        0.16571        0.22409        0.22409        0.16571        0.16571        0.22409        0.22409        0.16571        0.16571        0.22409        0.22409        0.16571        0.22409        0.22409        0.16571        0.22409        0.16571        0.16571        0.22409
           PBOT        0.33078        0.33078        0.27424        0.27424        0.33078        0.27424        0.27424        0.33078        0.33078        0.33078        0.33078        0.33078        0.33078        0.27424        0.33078        0.33078        0.27424        0.33078        0.33078        0.27424        0.27424        0.33078        0.33078        0.27424        0.27424        0.33078        0.33078        0.27424        0.33078        0.33078        0.27424        0.33078        0.27424        0.27424        0.33078
        VBIRSTI        0.69819        0.69819          1.597          1.597        0.69819          1.597          1.597        0.69819        0.69819        0.69819        0.69819        0.69819        0.69819          1.597        0.69819        0.69819          1.597        0.69819        0.69819          1.597          1.597        0.69819        0.69819          1.597          1.597        0.69819        0.69819          1.597        0.69819        0.69819          1.597        0.69819          1.597          1.597        0.69819
        VBIRBOT        0.72606        0.72606        0.74373        0.74373        0.72606        0.74373        0.74373        0.72606        0.72606        0.72606        0.72606        0.72606        0.72606        0.74373        0.72606        0.72606        0.74373        0.72606        0.72606        0.74373        0.74373        0.72606        0.72606        0.74373        0.74373        0.72606        0.72606        0.74373        0.72606        0.72606        0.74373        0.72606        0.74373        0.74373        0.72606
        CJORGAT        3.1e-11        3.1e-11     1.3846e-11     1.3846e-11        3.1e-11     1.3846e-11     1.3846e-11        3.1e-11        3.1e-11        3.1e-11        3.1e-11        3.1e-11        3.1e-11     1.3846e-11        3.1e-11        3.1e-11     1.3846e-11        3.1e-11        3.1e-11     1.3846e-11     1.3846e-11        3.1e-11        3.1e-11     1.3846e-11     1.3846e-11        3.1e-11        3.1e-11     1.3846e-11        3.1e-11        3.1e-11     1.3846e-11        3.1e-11     1.3846e-11     1.3846e-11        3.1e-11

            TRJ             21             21             21             21             21             21             21             21             21             21             21             21             21             21             21             21             21             21             21             21             21             21             21             21             21             21             21             21             21             21             21             21             21             21             21
           IMAX      0.0024527      0.0024527      0.0020128      0.0020128      0.0024527      0.0020128      0.0020128      0.0024527      0.0024527      0.0024527      0.0024527      0.0024527      0.0024527      0.0020128      0.0024527      0.0024527      0.0020128      0.0024527      0.0024527      0.0020128      0.0020128      0.0024527      0.0024527      0.0020128      0.0020128      0.0024527      0.0024527      0.0020128      0.0024527      0.0024527      0.0020128      0.0024527      0.0020128      0.0020128      0.0024527
        LODETAO              1              1              1              1              1              1              1              1              1              1              1              1              1              1              1              1              1              1              1              1              1              1              1              1              1              1              1              1              1              1              1              1              1              1              1
     IDSATRSTID          1e-18          1e-18          1e-18          1e-18          1e-18          1e-18          1e-18          1e-18          1e-18          1e-18          1e-18          1e-18          1e-18          1e-18          1e-18          1e-18          1e-18          1e-18          1e-18          1e-18          1e-18          1e-18          1e-18          1e-18          1e-18          1e-18          1e-18          1e-18          1e-18          1e-18          1e-18          1e-18          1e-18          1e-18          1e-18
         STETAO              0              0              0              0              0              0              0              0              0              0              0              0              0              0              0              0              0              0              0              0              0              0              0              0              0              0              0              0              0              0              0              0              0              0              0
        WLODVTH              0              0              0              0              0              0              0              0              0              0              0              0              0              0              0              0              0              0              0              0              0              0              0              0              0              0              0              0              0              0              0              0              0              0              0
        LLODVTH              0              0              0              0              0              0              0              0              0              0              0              0              0              0              0              0              0              0              0              0              0              0              0              0              0              0              0              0              0              0              0              0              0              0              0
        CJORBOT      0.0008095      0.0008095     0.00085856     0.00085856      0.0008095     0.00085856     0.00085856      0.0008095      0.0008095      0.0008095      0.0008095      0.0008095      0.0008095     0.00085856      0.0008095      0.0008095     0.00085856      0.0008095      0.0008095     0.00085856     0.00085856      0.0008095      0.0008095     0.00085856     0.00085856      0.0008095      0.0008095     0.00085856      0.0008095      0.0008095     0.00085856      0.0008095     0.00085856     0.00085856      0.0008095

         WKVTHO              0              0              0              0              0              0              0              0              0              0              0              0              0              0              0              0              0              0              0              0              0              0              0              0              0              0              0              0              0              0              0              0              0              0              0
         LKVTHO              0              0              0              0              0              0              0              0              0              0              0              0              0              0              0              0              0              0              0              0              0              0              0              0              0              0              0              0              0              0              0              0              0              0              0
     STFBBTGATD         -0.001         -0.001         -0.001         -0.001         -0.001         -0.001         -0.001         -0.001         -0.001         -0.001         -0.001         -0.001         -0.001         -0.001         -0.001         -0.001         -0.001         -0.001         -0.001         -0.001         -0.001         -0.001         -0.001         -0.001         -0.001         -0.001         -0.001         -0.001         -0.001         -0.001         -0.001         -0.001         -0.001         -0.001         -0.001
          KVTHO              0              0              0              0              0              0              0              0              0              0              0              0              0              0              0              0              0              0              0              0              0              0              0              0              0              0              0              0              0              0              0              0              0              0              0
        WLODKUO              0              0              0              0              0              0              0              0              0              0              0              0              0              0              0              0              0              0              0              0              0              0              0              0              0              0              0              0              0              0              0              0              0              0              0
           WKUO              0              0              0              0              0              0              0              0              0              0              0              0              0              0              0              0              0              0              0              0              0              0              0              0              0              0              0              0              0              0              0              0              0              0              0
           LKUO              0              0              0              0              0              0              0              0              0              0              0              0              0              0              0              0              0              0              0              0              0              0              0              0              0              0              0              0              0              0              0              0              0              0              0
           TKUO              0              0              0              0              0              0              0              0              0              0              0              0              0              0              0              0              0              0              0              0              0              0              0              0              0              0              0              0              0              0              0              0              0              0              0

           WLOD              0              0              0              0              0              0              0              0              0              0              0              0              0              0              0              0              0              0              0              0              0              0              0              0              0              0              0              0              0              0              0              0              0              0              0
          SBREF          1e-06          1e-06          1e-06          1e-06          1e-06          1e-06          1e-06          1e-06          1e-06          1e-06          1e-06          1e-06          1e-06          1e-06          1e-06          1e-06          1e-06          1e-06          1e-06          1e-06          1e-06          1e-06          1e-06          1e-06          1e-06          1e-06          1e-06          1e-06          1e-06          1e-06          1e-06          1e-06          1e-06          1e-06          1e-06
          SAREF          1e-06          1e-06          1e-06          1e-06          1e-06          1e-06          1e-06          1e-06          1e-06          1e-06          1e-06          1e-06          1e-06          1e-06          1e-06          1e-06          1e-06          1e-06          1e-06          1e-06          1e-06          1e-06          1e-06          1e-06          1e-06          1e-06          1e-06          1e-06          1e-06          1e-06          1e-06          1e-06          1e-06          1e-06          1e-06
         RJUNDO              0              0              0              0              0              0              0              0              0              0              0              0              0              0              0              0              0              0              0              0              0              0              0              0              0              0              0              0              0              0              0              0              0              0              0
         RJUNSO              0              0              0              0              0              0              0              0              0              0              0              0              0              0              0              0              0              0              0              0              0              0              0              0              0              0              0              0              0              0              0              0              0              0              0
         RWELLO              0              0              0              0              0              0              0              0              0              0              0              0              0              0              0              0              0              0              0              0              0              0              0              0              0              0              0              0              0              0              0              0              0              0              0
          DLSIL              0              0              0              0              0              0              0              0              0              0              0              0              0              0              0              0              0              0              0              0              0              0              0              0              0              0              0              0              0              0              0              0              0              0              0
           RSHG              0              0              0              0              0              0              0              0              0              0              0              0              0              0              0              0              0              0              0              0              0              0              0              0              0              0              0              0              0              0              0              0              0              0              0

           RINT              0              0     3.0856e-12     3.0856e-12              0     3.0856e-12     3.0856e-12              0              0              0              0              0              0     3.0856e-12              0              0     3.0856e-12              0              0     3.0856e-12     3.0856e-12              0              0     3.0856e-12     3.0856e-12              0              0     3.0856e-12              0              0     3.0856e-12              0     3.0856e-12     3.0856e-12              0
            RGO              0              0              0              0              0              0              0              0              0              0              0              0              0              0              0              0              0              0              0              0              0              0              0              0              0              0              0              0              0              0              0              0              0              0              0
         KUOWEL              0              0              0              0              0              0              0              0              0              0              0              0              0              0              0              0              0              0              0              0              0              0              0              0              0              0              0              0              0              0              0              0              0              0              0
         KUOWEO              0              0              0              0              0              0              0              0              0              0              0              0              0              0              0              0              0              0              0              0              0              0              0              0              0              0              0              0              0              0              0              0              0              0              0
      KVTHOWELW              0              0              0              0              0              0              0              0              0              0              0              0              0              0              0              0              0              0              0              0              0              0              0              0              0              0              0              0              0              0              0              0              0              0              0
       KVTHOWEO              0              0              0              0              0              0              0              0              0              0              0              0              0              0              0              0              0              0              0              0              0              0              0              0              0              0              0              0              0              0              0              0              0              0              0
        EFEDGEO              1              1              1              1              1              1              1              1              1              1              1              1              1              1              1              1              1              1              1              1              1              1              1              1              1              1              1              1              1              1              1              1              1              1              1
      NFCEDGELW              0              0              0              0              0              0              0              0              0              0              0              0              0              0              0              0              0              0              0              0              0              0              0              0              0              0              0              0              0              0              0              0              0              0              0

      NFAEDGELW          8e+22          8e+22          8e+22          8e+22          8e+22          8e+22          8e+22          8e+22          8e+22          8e+22          8e+22          8e+22          8e+22          8e+22          8e+22          8e+22          8e+22          8e+22          8e+22          8e+22          8e+22          8e+22          8e+22          8e+22          8e+22          8e+22          8e+22          8e+22          8e+22          8e+22          8e+22          8e+22          8e+22          8e+22          8e+22
       FNTEDGEO              1              1              1              1              1              1              1              1              1              1              1              1              1              1              1              1              1              1              1              1              1              1              1              1              1              1              1              1              1              1              1              1              1              1              1
      PSCEEDGEW              0              0              0              0              0              0              0              0              0              0              0              0              0              0              0              0              0              0              0              0              0              0              0              0              0              0              0              0              0              0              0              0              0              0              0
           RSHD              0              0              0              0              0              0              0              0              0              0              0              0              0              0              0              0              0              0              0              0              0              0              0              0              0              0              0              0              0              0              0              0              0              0              0
   PSCEEDGELEXP              2              2              2              2              2              2              2              2              2              2              2              2              2              2              2              2              2              2              2              2              2              2              2              2              2              2              2              2              2              2              2              2              2              2              2
     STBETEDGEW              0              0              0              0              0              0              0              0              0              0              0              0              0              0              0              0              0              0              0              0              0              0              0              0              0              0              0              0              0              0              0              0              0              0              0
       BETEDGEW              0              0              0              0              0              0              0              0              0              0              0              0              0              0              0              0              0              0              0              0              0              0              0              0              0              0              0              0              0              0              0              0              0              0              0
        CTEDGEL              0              0              0              0              0              0              0              0              0              0              0              0              0              0              0              0              0              0              0              0              0              0              0              0              0              0              0              0              0              0              0              0              0              0              0

        CTEDGEO              0              0              0              0              0              0              0              0              0              0              0              0              0              0              0              0              0              0              0              0              0              0              0              0              0              0              0              0              0              0              0              0              0              0              0
      NSUBEDGEO          5e+23          5e+23          5e+23          5e+23          5e+23          5e+23          5e+23          5e+23          5e+23          5e+23          5e+23          5e+23          5e+23          5e+23          5e+23          5e+23          5e+23          5e+23          5e+23          5e+23          5e+23          5e+23          5e+23          5e+23          5e+23          5e+23          5e+23          5e+23          5e+23          5e+23          5e+23          5e+23          5e+23          5e+23          5e+23
        PHIGGAT           1.83           1.83            0.3            0.3           1.83            0.3            0.3           1.83           1.83           1.83           1.83           1.83           1.83            0.3           1.83           1.83            0.3           1.83           1.83            0.3            0.3           1.83           1.83            0.3            0.3           1.83           1.83            0.3           1.83           1.83            0.3           1.83            0.3            0.3           1.83
     DPHIBEDGEW              0              0              0              0              0              0              0              0              0              0              0              0              0              0              0              0              0              0              0              0              0              0              0              0              0              0              0              0              0              0              0              0              0              0              0
     DPHIBEDGEL              0              0              0              0              0              0              0              0              0              0              0              0              0              0              0              0              0              0              0              0              0              0              0              0              0              0              0              0              0              0              0              0              0              0              0
         PKVTHO              0              0              0              0              0              0              0              0              0              0              0              0              0              0              0              0              0              0              0              0              0              0              0              0              0              0              0              0              0              0              0              0              0              0              0
     DPHIBEDGEO              0              0              0              0              0              0              0              0              0              0              0              0              0              0              0              0              0              0              0              0              0              0              0              0              0              0              0              0              0              0              0              0              0              0              0
    STVFBEDGELW              0              0              0              0              0              0              0              0              0              0              0              0              0              0              0              0              0              0              0              0              0              0              0              0              0              0              0              0              0              0              0              0              0              0              0

     STVFBEDGEL              0              0              0              0              0              0              0              0              0              0              0              0              0              0              0              0              0              0              0              0              0              0              0              0              0              0              0              0              0              0              0              0              0              0              0
          WEDGE          1e-08          1e-08          1e-08          1e-08          1e-08          1e-08          1e-08          1e-08          1e-08          1e-08          1e-08          1e-08          1e-08          1e-08          1e-08          1e-08          1e-08          1e-08          1e-08          1e-08          1e-08          1e-08          1e-08          1e-08          1e-08          1e-08          1e-08          1e-08          1e-08          1e-08          1e-08          1e-08          1e-08          1e-08          1e-08
         ALPNOI              2              2          2.708          2.708              2          2.708          2.708              2              2              2              2              2              2          2.708              2              2          2.708              2              2          2.708          2.708              2              2          2.708          2.708              2              2          2.708              2              2          2.708              2          2.708          2.708              2
        LINTNOI        2.5e-08        2.5e-08     -3.158e-08     -3.158e-08        2.5e-08     -3.158e-08     -3.158e-08        2.5e-08        2.5e-08        2.5e-08        2.5e-08        2.5e-08        2.5e-08     -3.158e-08        2.5e-08        2.5e-08     -3.158e-08        2.5e-08        2.5e-08     -3.158e-08     -3.158e-08        2.5e-08        2.5e-08     -3.158e-08     -3.158e-08        2.5e-08        2.5e-08     -3.158e-08        2.5e-08        2.5e-08     -3.158e-08        2.5e-08     -3.158e-08     -3.158e-08        2.5e-08
          NFCLW          2e-07          2e-07     -3.015e-08     -3.015e-08          2e-07     -3.015e-08     -3.015e-08          2e-07          2e-07          2e-07          2e-07          2e-07          2e-07     -3.015e-08          2e-07          2e-07     -3.015e-08          2e-07          2e-07     -3.015e-08     -3.015e-08          2e-07          2e-07     -3.015e-08     -3.015e-08          2e-07          2e-07     -3.015e-08          2e-07          2e-07     -3.015e-08          2e-07     -3.015e-08     -3.015e-08          2e-07
          NFALW        1.3e+25        1.3e+25       1.42e+25       1.42e+25        1.3e+25       1.42e+25       1.42e+25        1.3e+25        1.3e+25        1.3e+25        1.3e+25        1.3e+25        1.3e+25       1.42e+25        1.3e+25        1.3e+25       1.42e+25        1.3e+25        1.3e+25       1.42e+25       1.42e+25        1.3e+25        1.3e+25       1.42e+25       1.42e+25        1.3e+25        1.3e+25       1.42e+25        1.3e+25        1.3e+25       1.42e+25        1.3e+25       1.42e+25       1.42e+25        1.3e+25
        XJUNSTI       4.93e-08       4.93e-08       1.61e-08       1.61e-08       4.93e-08       1.61e-08       1.61e-08       4.93e-08       4.93e-08       4.93e-08       4.93e-08       4.93e-08       4.93e-08       1.61e-08       4.93e-08       4.93e-08       1.61e-08       4.93e-08       4.93e-08       1.61e-08       1.61e-08       4.93e-08       4.93e-08       1.61e-08       1.61e-08       4.93e-08       4.93e-08       1.61e-08       4.93e-08       4.93e-08       1.61e-08       4.93e-08       1.61e-08       1.61e-08       4.93e-08
        FNTEXCL              0              0              0              0              0              0              0              0              0              0              0              0              0              0              0              0              0              0              0              0              0              0              0              0              0              0              0              0              0              0              0              0              0              0              0

       VBIRBOTD              1              1              1              1              1              1              1              1              1              1              1              1              1              1              1              1              1              1              1              1              1              1              1              1              1              1              1              1              1              1              1              1              1              1              1
          CFRDW              0              0              0              0              0              0              0              0              0              0              0              0              0              0              0              0              0              0              0              0              0              0              0              0              0              0              0              0              0              0              0              0              0              0              0
           CFRW              0              0        1.2e-16        1.2e-16              0        1.2e-16        1.2e-16              0              0              0              0              0              0    1.33333e-17              0              0    1.33333e-17              0              0        1.2e-16          6e-17              0              0          6e-17        1.2e-16              0              0        1.2e-16              0              0        1.2e-16              0        1.2e-16        1.2e-16              0
         CGIDLO        0.23693        0.23693              0              0        0.23693              0              0        0.23693        0.23693        0.23693        0.23693        0.23693        0.23693              0        0.23693        0.23693              0        0.23693        0.23693              0              0        0.23693        0.23693              0              0        0.23693        0.23693              0        0.23693        0.23693              0        0.23693              0              0        0.23693
          SCREF          1e-06          1e-06          1e-06          1e-06          1e-06          1e-06          1e-06          1e-06          1e-06          1e-06          1e-06          1e-06          1e-06          1e-06          1e-06          1e-06          1e-06          1e-06          1e-06          1e-06          1e-06          1e-06          1e-06          1e-06          1e-06          1e-06          1e-06          1e-06          1e-06          1e-06          1e-06          1e-06          1e-06          1e-06          1e-06
      STBGIDLDO              0              0              0              0              0              0              0              0              0              0              0              0              0              0              0              0              0              0              0              0              0              0              0              0              0              0              0              0              0              0              0              0              0              0              0
       STBGIDLO     -0.0049461     -0.0049461      -0.001067      -0.001067     -0.0049461      -0.001067      -0.001067     -0.0049461     -0.0049461     -0.0049461     -0.0049461     -0.0049461     -0.0049461      -0.001067     -0.0049461     -0.0049461      -0.001067     -0.0049461     -0.0049461      -0.001067      -0.001067     -0.0049461     -0.0049461      -0.001067      -0.001067     -0.0049461     -0.0049461      -0.001067     -0.0049461     -0.0049461      -0.001067     -0.0049461      -0.001067      -0.001067     -0.0049461
         BGIDLO        5.59703        5.59703             13             13        5.59703             13             13        5.59703        5.59703        5.59703        5.59703        5.59703        5.59703             13        5.59703        5.59703             13        5.59703        5.59703             13             13        5.59703        5.59703             13             13        5.59703        5.59703             13        5.59703        5.59703             13        5.59703             13             13        5.59703

        AGIDLDW              0              0              0              0              0              0              0              0              0              0              0              0              0              0              0              0              0              0              0              0              0              0              0              0              0              0              0              0              0              0              0              0              0              0              0
          NFBLW      5.289e+09      5.289e+09      5.743e+08      5.743e+08      5.289e+09      5.743e+08      5.743e+08      5.289e+09      5.289e+09      5.289e+09      5.289e+09      5.289e+09      5.289e+09      5.743e+08      5.289e+09      5.289e+09      5.743e+08      5.289e+09      5.289e+09      5.743e+08      5.743e+08      5.289e+09      5.289e+09      5.743e+08      5.743e+08      5.289e+09      5.289e+09      5.743e+08      5.289e+09      5.289e+09      5.743e+08      5.289e+09      5.743e+08      5.743e+08      5.289e+09
         AGIDLW          6e-10          6e-10             70             70          6e-10             70             70          6e-10          6e-10          6e-10          6e-10          6e-10          6e-10             70          6e-10          6e-10             70          6e-10          6e-10             70             70          6e-10          6e-10             70             70          6e-10          6e-10             70          6e-10          6e-10             70          6e-10             70             70          6e-10
         KUOWEW              0              0              0              0              0              0              0              0              0              0              0              0              0              0              0              0              0              0              0              0              0              0              0              0              0              0              0              0              0              0              0              0              0              0              0
           GC2O          0.375          0.375          0.375          0.375          0.375          0.375          0.375          0.375          0.375          0.375          0.375          0.375          0.375          0.375          0.375          0.375          0.375          0.375          0.375          0.375          0.375          0.375          0.375          0.375          0.375          0.375          0.375          0.375          0.375          0.375          0.375          0.375          0.375          0.375          0.375
          STIGO              2              2              2              2              2              2              2              2              2              2              2              2              2              2              2              2              2              2              2              2              2              2              2              2              2              2              2              2              2              2              2              2              2              2              2
         IGOVDW              0              0              0              0              0              0              0              0              0              0              0              0              0              0              0              0              0              0              0              0              0              0              0              0              0              0              0              0              0              0              0              0              0              0              0
        IGINVLW              0              0              0              0              0              0              0              0              0              0              0              0              0              0              0              0              0              0              0              0              0              0              0              0              0              0              0              0              0              0              0              0              0              0              0

           PKUO              0              0              0              0              0              0              0              0              0              0              0              0              0              0              0              0              0              0              0              0              0              0              0              0              0              0              0              0              0              0              0              0              0              0              0
           GCOO              0              0              0              0              0              0              0              0              0              0              0              0              0              0              0              0              0              0              0              0              0              0              0              0              0              0              0              0              0              0              0              0              0              0              0
            A4L          -0.07          -0.07       -0.05413       -0.05413          -0.07       -0.05413       -0.05413          -0.07          -0.07          -0.07          -0.07          -0.07          -0.07       -0.05413          -0.07          -0.07       -0.05413          -0.07          -0.07       -0.05413       -0.05413          -0.07          -0.07       -0.05413       -0.05413          -0.07          -0.07       -0.05413          -0.07          -0.07       -0.05413          -0.07       -0.05413       -0.05413          -0.07
            A3O         1.1753         1.1753         1.2047         1.2047         1.1753         1.2047         1.2047         1.1753         1.1753         1.1753         1.1753         1.1753         1.1753         1.2047         1.1753         1.1753         1.2047         1.1753         1.1753         1.2047         1.2047         1.1753         1.1753         1.2047         1.2047         1.1753         1.1753         1.2047         1.1753         1.1753         1.2047         1.1753         1.2047         1.2047         1.1753
          STA2O     -0.0049931     -0.0049931       0.018532       0.018532     -0.0049931       0.018532       0.018532     -0.0049931     -0.0049931     -0.0049931     -0.0049931     -0.0049931     -0.0049931       0.018532     -0.0049931     -0.0049931       0.018532     -0.0049931     -0.0049931       0.018532       0.018532     -0.0049931     -0.0049931       0.018532       0.018532     -0.0049931     -0.0049931       0.018532     -0.0049931     -0.0049931       0.018532     -0.0049931       0.018532       0.018532     -0.0049931
     NSUBEDGELW              0              0              0              0              0              0              0              0              0              0              0              0              0              0              0              0              0              0              0              0              0              0              0              0              0              0              0              0              0              0              0              0              0              0              0
            A2O         38.581         38.581         22.013         22.013         38.581         22.013         22.013         38.581         38.581         38.581         38.581         38.581         38.581         22.013         38.581         38.581         22.013         38.581         38.581         22.013         22.013         38.581         38.581         22.013         22.013         38.581         38.581         22.013         38.581         38.581         22.013         38.581         22.013         22.013         38.581
            A1W        0.01435        0.01435       0.024056       0.024056        0.01435       0.024056       0.024056        0.01435        0.01435        0.01435        0.01435        0.01435        0.01435       0.024056        0.01435        0.01435       0.024056        0.01435        0.01435       0.024056       0.024056        0.01435        0.01435       0.024056       0.024056        0.01435        0.01435       0.024056        0.01435        0.01435       0.024056        0.01435       0.024056       0.024056        0.01435

            A1L       0.029145       0.029145       0.052459       0.052459       0.029145       0.052459       0.052459       0.029145       0.029145       0.029145       0.029145       0.029145       0.029145       0.052459       0.029145       0.029145       0.052459       0.029145       0.029145       0.052459       0.052459       0.029145       0.029145       0.052459       0.052459       0.029145       0.029145       0.052459       0.029145       0.029145       0.052459       0.029145       0.052459       0.052459       0.029145
            VPO     1.8436e-06     1.8436e-06        0.06567        0.06567     1.8436e-06        0.06567        0.06567     1.8436e-06     1.8436e-06     1.8436e-06     1.8436e-06     1.8436e-06     1.8436e-06        0.06567     1.8436e-06     1.8436e-06        0.06567     1.8436e-06     1.8436e-06        0.06567        0.06567     1.8436e-06     1.8436e-06        0.06567        0.06567     1.8436e-06     1.8436e-06        0.06567     1.8436e-06     1.8436e-06        0.06567     1.8436e-06        0.06567        0.06567     1.8436e-06
         ALP2L2     2.2204e-15     2.2204e-15              0              0     2.2204e-15              0              0     2.2204e-15     2.2204e-15     2.2204e-15     2.2204e-15     2.2204e-15     2.2204e-15              0     2.2204e-15     2.2204e-15              0     2.2204e-15     2.2204e-15              0              0     2.2204e-15     2.2204e-15              0              0     2.2204e-15     2.2204e-15              0     2.2204e-15     2.2204e-15              0     2.2204e-15              0              0     2.2204e-15
       ALP1LEXP          1.347          1.347        0.80983        0.80983          1.347        0.80983        0.80983          1.347          1.347          1.347          1.347          1.347          1.347        0.80983          1.347          1.347        0.80983          1.347          1.347        0.80983        0.80983          1.347          1.347        0.80983        0.80983          1.347          1.347        0.80983          1.347          1.347        0.80983          1.347        0.80983        0.80983          1.347
         ALP1L1     4.4409e-16     4.4409e-16       0.007475       0.007475     4.4409e-16       0.007475       0.007475     4.4409e-16     4.4409e-16     4.4409e-16     4.4409e-16     4.4409e-16     4.4409e-16       0.007475     4.4409e-16     4.4409e-16       0.007475     4.4409e-16     4.4409e-16       0.007475       0.007475     4.4409e-16     4.4409e-16       0.007475       0.007475     4.4409e-16     4.4409e-16       0.007475     4.4409e-16     4.4409e-16       0.007475     4.4409e-16       0.007475       0.007475     4.4409e-16
[...]
                                                                                          
             FS              0              0              0              0              0              0              0
              0              0              0              0              0              0              0              0
              0              0              0              0              0              0              0              0
              0              0              0              0              0              0
             VA              0              0              0              0              0              0              0
              0              0              0              0              0              0              0              0
              0              0              0              0              0              0              0              0
              0              0              0              0              0              0
        ACPHASE              0              0              0              0              0              0              0
              0              0              0              0              0              0              0              0
              0              0              0              0              0              0              0              0
              0              0              0              0              0              0
          THETA              0              0              0              0              0              0              0
              0              0              0              0              0              0              0              0
              0              0              0              0              0              0              0              0
              0              0              0              0              0              0
            MDI              0              0              0              0              0              0              0
              0              0              0              0              0              0              0              0
              0              0              0              0              0              0              0              0
              0              0              0              0              0              0
            NUM              0              0              0              0              0              0              0
              0              0              0              0              0              0              0              0
              0              0              0              0              0              0              0              0
              0              0              0              0              0              0
             V2              0              0              0              0              0              0              0
              0              0              0              0              0              0              0              0
              0              0              0              0              0              0              0              0
              0              0              0              0              0              0
           FREQ              0              0              0              0              0              0              0
              0              0              0              0              0              0              0              0
              0              0              0              0              0              0              0              0
              0              0              0              0              0              0
            VHI              0              0              0              0              0              0              0
              0              0              0              0              0              0              0              0
              0              0              0              0              0              0              0              0
              0              0              0              0              0              0
             Z0             50             50             50             50             50             50             50
             50             50             50             50             50             50             50             50
             50             50             50             50             50             50             50             50
             50             50             50             50             50             50
             V1              0              0              0              0              0              0              0
              0              0              0              0              0              0              0              0
              0              0              0              0              0              0              0              0
              0              0              0              0              0              0
             TR              0              0              0              0              0              0              0
              0              0              0              0              0              0              0              0
              0              0              0              0              0              0              0              0
              0              0              0              0              0              0
           TAU1              0              0              0              0              0              0              0
              0              0              0              0              0              0              0              0
              0              0              0              0              0              0              0              0
              0              0              0              0              0              0
             PW              0              0              0              0              0              0              0
              0              0              0              0              0              0              0              0
              0              0              0              0              0              0              0              0
              0              0              0              0              0              0
             V0              0              0              0              0              0              0              0
              0              0              0              0              0              0              0              0
              0              0              0              0              0              0              0              0
              0              0              0              0              0              0
           TAU2              0              0              0              0              0              0              0
              0              0              0              0              0              0              0              0
              0              0              0              0              0              0              0              0
              0              0              0              0              0              0
             TD              0              0              0              0              0              0              0
              0              0              0              0              0              0              0              0
              0              0              0              0              0              0              0              0
              0              0              0              0              0              0
            PER              0              0              0              0              0              0              0
              0              0              0              0              0              0              0              0
              0              0              0              0              0              0              0              0
              0              0              0              0              0              0
           DCV0              5              0              0              0              0              0              0
              0              0              0              0              0              0              0              0
              0              0              0              0              0              0              0              0
              0              0              0              0              0              0
             RB              1              1              1              1              1              1              1
              1              1              1              1              1              1              1              1
              1              1              1              1              1              1              1              1
              1              1              1              1              1              1
              V              0              0              0              0              0              0              0
              0              0              0              0              0              0              0              0
              0              0              0              0              0              0              0              0
              0              0              0              0              0              0
            TD2              0              0              0              0              0              0              0
              0              0              0              0              0              0              0              0
              0              0              0              0              0              0              0              0
              0              0              0              0              0              0
           PORT              0              0              0              0              0              0              0
              0              0              0              0              0              0              0              0
              0              0              0              0              0              0              0              0
              0              0              0              0              0              0
          ACMAG              1              0              0              0              0              0              0
              0              0              0              0              0              0              0              0
              0              0              0              0              0              0              0              0
              0              0              0              0              0              0
             FC              0              0              0              0              0              0              0
              0              0              0              0              0              0              0              0
              0              0              0              0              0              0              0              0
              0              0              0              0              0              0
              R              0              0              0              0              0              0              0
              0              0              0              0              0              0              0              0
              0              0              0              0              0              0              0              0
              0              0              0              0              0              0
              T              0              0              0              0              0              0              0
              0              0              0              0              0              0              0              0
              0              0              0              0              0              0              0              0
              0              0              0              0              0              0
            TD1              0              0              0              0              0              0              0
              0              0              0              0              0              0              0              0
              0              0              0              0              0              0              0              0
              0              0              0              0              0              0
            VLO              0              0              0              0              0              0              0
              0              0              0              0              0              0              0              0
              0              0              0              0              0              0              0              0
              0              0              0              0              0              0
        TSAMPLE              0              0              0              0              0              0              0
              0              0              0              0              0              0              0              0
              0              0              0              0              0              0              0              0
              0              0              0              0              0              0


Number of Resistor models: 2
          name R level 1 (Resistor)       RES_RPPD
          type                              R
         level               1              1
           TNOM             27             27
           DEFW          1e-05          5e-07
              R              1              1
            RSH              0            260
            TCE              0              0
            TC2              0          4e-07
         NARROW              0              0
            TC1              0        0.00017

Number of Resistor instances: 19
          name              R4             R5        X12:R11        X12:R14     X12:XC2:R1     X12:XC3:R1     X12:XC4:R1
         XC1:R1         XC4:R1        XR10:R2         XR1:R2         XR2:R2         XR3:R2         XR9:R2        XR10:R1
         XR1:R1         XR2:R1         XR3:R1         XR9:R1
         model R level 1 (Resistor)R level 1 (Resistor)R level 1 (Resistor)R level 1 (Resistor)R level 1 (Resistor)R level 1 (Resistor)R level 1 (Resistor)
R level 1 (Resistor)R level 1 (Resistor)R level 1 (Resistor)R level 1 (Resistor)R level 1 (Resistor)R level 1 (Resistor)R level 1 (Resistor)       RES_RPPD
       RES_RPPD       RES_RPPD       RES_RPPD       RES_RPPD
            TC2              0              0              0              0              0              0              0
              0              0              0              0              0              0              0          4e-07
          4e-07          4e-07          4e-07          4e-07
            TC1              0              0              0              0              0              0              0
              0              0       -0.00095       -0.00095       -0.00095       -0.00095       -0.00095        0.00017
        0.00017        0.00017        0.00017        0.00017
              W          1e-05          1e-05          1e-05          1e-05          1e-05          1e-05          1e-05
          1e-05          1e-05          1e-05          1e-05          1e-05          1e-05          1e-05      1.006e-06
       5.06e-07       5.06e-07      1.006e-06      1.006e-06
              L              0              0              0              0              0              0              0
              0              0              0              0              0              0              0    0.000145211
    0.000160178     0.00011727    0.000145211    0.000122676
            TCE              0              0              0              0              0              0              0
              0              0              0              0              0              0              0              0
              0              0              0              0
              M              1              1              1              1              1              1              1
              1              1              1              1              1              1              1              1
              1              1              1              1
          DTEMP              0              0              0              0              0              0              0
              0              0              0              0              0              0              0              0
              0              0              0              0
           TEMP             27             27             27             27             27             27             27
             27             27             27             27             27             27             27             27
             27             27             27             27
              R            100            0.1              1              1          0.055          0.055          0.055
          0.055          0.055             70            140            140             70             70        37529.6
        82305.1        60257.5        37529.6        31705.4

------------------------------------------------------------

***** Solution Summary *****
	Number Successful Steps Taken:		1
	Number Failed Steps Attempted:		0
	Number Jacobians Evaluated:		7263
	Number Linear Solves:			7263
	Number Failed Linear Solves:		0
	Number Residual Evaluations:		7421
	Number Nonlinear Convergence Failures:	0
	Total Residual Load Time:		4.57895 seconds
	Total Jacobian Load Time:		0.361155 seconds
	Total Linear Solution Time:		0.951406 seconds


***** Total Simulation Solvers Run Time: 11.7965 seconds
***** Total Elapsed Run Time:            11.9436 seconds
*****
***** End of Xyce(TM) Simulation
*****

Timing summary of 1 processor
                 Stats                   Count       CPU Time              Wall Time
---------------------------------------- ----- --------------------- ---------------------
Xyce                                         1        6.305 (100.0%)       11.945 (100.0%)
  Analysis                                   1        6.202 (98.37%)       11.796 (98.75%)
    DC Sweep                                 1        6.202 (98.37%)       11.796 (98.75%)
      Solve                                  1        6.158 (97.67%)       11.751 (98.38%)
        Residual                          7421        3.708 (58.80%)        8.060 (67.47%)
        Jacobian                          7263        0.370 ( 5.86%)        0.532 ( 4.45%)
        Linear Solve                      7263        0.921 (14.61%)        1.404 (11.75%)
      Successful Step                        1        0.044 ( 0.69%)        0.045 ( 0.37%)
  Netlist Import                             1        0.092 ( 1.46%)        0.126 ( 1.05%)
    Parse Context                            1        0.010 ( 0.16%)        0.011 ( 0.09%)
    Distribute Devices                       1        0.079 ( 1.25%)        0.107 ( 0.90%)
    Verify Devices                           1        0.000 (<0.01%)        0.000 (<0.01%)
    Instantiate                              1        0.003 ( 0.04%)        0.007 ( 0.06%)
  Late Initialization                        1        0.009 ( 0.15%)        0.020 ( 0.17%)
    Global Indices                           1        0.001 (<0.01%)        0.001 (<0.01%)
  Setup Matrix Structure                     1        0.001 ( 0.02%)        0.001 (<0.01%)

