
*****
***** Welcome to the Xyce(TM) Parallel Electronic Simulator
*****
***** This is version Xyce DEVELOPMENT-202409220015-(Public_Release-7.8.0-128-g5b74b0d5)-opensource
***** Date: Sun Dec 15 00:39:39 CET 2024


***** Executing netlist /ALL/git_olisnr/TO_Dec2024/RF_amplifiers/design_data/xschem/shunt_regulator/simulation/SHUNT_3V1_temp_mosss.spice

***** Reading and parsing netlist...
Netlist warning in file
 /home/ich/share/pdk/ihp-sg13g2/libs.tech/xyce/models/sg13g2_moshv_parm.lib at
 or near line 212
 No model parameter MUNQSO found for model SG13G2_HV_PMOS_PSP of type
 PSP103_VA, parameter ignored.
Netlist warning in file
 /home/ich/share/pdk/ihp-sg13g2/libs.tech/xyce/models/sg13g2_moshv_parm.lib at
 or near line 212
 No model parameter SWNQS found for model SG13G2_HV_PMOS_PSP of type
 PSP103_VA, parameter ignored.
Netlist warning in file
 /home/ich/share/pdk/ihp-sg13g2/libs.tech/xyce/models/sg13g2_hbt_mod.lib at or
 near line 425
 No model parameter TRM1 found for model PNPMPA_MOD of type PNP, parameter
 ignored.
Netlist warning in file
 /home/ich/share/pdk/ihp-sg13g2/libs.tech/xyce/models/sg13g2_hbt_mod.lib at or
 near line 425
 No model parameter TRM2 found for model PNPMPA_MOD of type PNP, parameter
 ignored.
Netlist warning in file
 /home/ich/share/pdk/ihp-sg13g2/libs.tech/xyce/models/sg13g2_hbt_mod.lib at or
 near line 425
 No model parameter TRC1 found for model PNPMPA_MOD of type PNP, parameter
 ignored.
Netlist warning in file
 /home/ich/share/pdk/ihp-sg13g2/libs.tech/xyce/models/sg13g2_hbt_mod.lib at or
 near line 425
 No model parameter TRC2 found for model PNPMPA_MOD of type PNP, parameter
 ignored.
Netlist warning in file
 /home/ich/share/pdk/ihp-sg13g2/libs.tech/xyce/models/sg13g2_hbt_mod.lib at or
 near line 425
 No model parameter TRE1 found for model PNPMPA_MOD of type PNP, parameter
 ignored.
Netlist warning in file
 /home/ich/share/pdk/ihp-sg13g2/libs.tech/xyce/models/sg13g2_hbt_mod.lib at or
 near line 425
 No model parameter TRE2 found for model PNPMPA_MOD of type PNP, parameter
 ignored.
Netlist warning in file
 /home/ich/share/pdk/ihp-sg13g2/libs.tech/xyce/models/sg13g2_moshv_parm.lib at
 or near line 62
 No model parameter MUNQSO found for model SG13G2_HV_NMOS_PSP of type
 PSP103_VA, parameter ignored.
Netlist warning in file
 /home/ich/share/pdk/ihp-sg13g2/libs.tech/xyce/models/sg13g2_moshv_parm.lib at
 or near line 62
 No model parameter SWNQS found for model SG13G2_HV_NMOS_PSP of type
 PSP103_VA, parameter ignored.
***** Setting up topology...

Netlist warning: Voltage Node (REFADJ) connected to only 1 device Terminal
***** Device Count Summary ...
       C level 1 (Capacitor)                    6
       PSP103_VA level 1 (ADMS PSP103_VA)      35
       Q level 1 (Bipolar Junction Transistor)  1
       R level 1 (Resistor)                    19
       V level 1 (Independent Voltage Source)  29
       ------------------------------------------
       Total Devices                           90
***** Setting up matrix structure...
***** Number of Unknowns = 186
***** Initializing...


***** Solution Summary *****
	Number Successful Steps Taken:		36
	Number Failed Steps Attempted:		1
	Number Jacobians Evaluated:		15715
	Number Linear Solves:			15715
	Number Failed Linear Solves:		0
	Number Residual Evaluations:		16036
	Number Nonlinear Convergence Failures:	1
	Total Residual Load Time:		9.47696 seconds
	Total Jacobian Load Time:		0.80109 seconds
	Total Linear Solution Time:		1.71956 seconds

	Failed DC sweep steps:		
		DC Step # 1

***** Total Simulation Solvers Run Time: 17.3166 seconds
***** Total Elapsed Run Time:            17.5441 seconds
*****
***** End of Xyce(TM) Simulation
*****

Timing summary of 1 processor
                 Stats                   Count       CPU Time              Wall Time
---------------------------------------- ----- --------------------- ---------------------
Xyce                                         1       13.829 (100.0%)       17.546 (100.0%)
  Analysis                                   1       13.678 (98.91%)       17.316 (98.69%)
    DC Sweep                                 1       13.678 (98.91%)       17.316 (98.69%)
      Solve                                 37       13.657 (98.76%)       17.293 (98.56%)
        Residual                         16036        8.657 (62.60%)       11.481 (65.43%)
        Jacobian                         15715        0.800 ( 5.79%)        0.957 ( 5.46%)
        Linear Solve                     15715        1.681 (12.16%)        1.914 (10.91%)
      Failed Steps                           1        0.000 (<0.01%)        0.000 (<0.01%)
      Successful Step                       36        0.003 ( 0.02%)        0.004 ( 0.02%)
  Netlist Import                             1        0.136 ( 0.98%)        0.213 ( 1.22%)
    Parse Context                            1        0.019 ( 0.14%)        0.022 ( 0.12%)
    Distribute Devices                       1        0.111 ( 0.81%)        0.186 ( 1.06%)
    Verify Devices                           1        0.000 (<0.01%)        0.000 (<0.01%)
    Instantiate                              1        0.004 ( 0.03%)        0.004 ( 0.02%)
  Late Initialization                        1        0.011 ( 0.08%)        0.013 ( 0.07%)
    Global Indices                           1        0.001 (<0.01%)        0.001 (<0.01%)
  Setup Matrix Structure                     1        0.001 (<0.01%)        0.001 (<0.01%)

