
*****
***** Welcome to the Xyce(TM) Parallel Electronic Simulator
*****
***** This is version Xyce DEVELOPMENT-202409220015-(Public_Release-7.8.0-128-g5b74b0d5)-opensource
***** Date: Sun Dec 15 00:39:39 CET 2024


***** Executing netlist /ALL/git_olisnr/TO_Dec2024/RF_amplifiers/design_data/xschem/shunt_regulator/simulation/SHUNT_3V1_dc_mosfs.spice

***** Reading and parsing netlist...
Netlist warning in file
 /home/ich/share/pdk/ihp-sg13g2/libs.tech/xyce/models/sg13g2_moshv_parm.lib at
 or near line 212
 No model parameter MUNQSO found for model SG13G2_HV_PMOS_PSP of type
 PSP103_VA, parameter ignored.
Netlist warning in file
 /home/ich/share/pdk/ihp-sg13g2/libs.tech/xyce/models/sg13g2_moshv_parm.lib at
 or near line 212
 No model parameter SWNQS found for model SG13G2_HV_PMOS_PSP of type
 PSP103_VA, parameter ignored.
Netlist warning in file
 /home/ich/share/pdk/ihp-sg13g2/libs.tech/xyce/models/sg13g2_hbt_mod.lib at or
 near line 425
 No model parameter TRM1 found for model PNPMPA_MOD of type PNP, parameter
 ignored.
Netlist warning in file
 /home/ich/share/pdk/ihp-sg13g2/libs.tech/xyce/models/sg13g2_hbt_mod.lib at or
 near line 425
 No model parameter TRM2 found for model PNPMPA_MOD of type PNP, parameter
 ignored.
Netlist warning in file
 /home/ich/share/pdk/ihp-sg13g2/libs.tech/xyce/models/sg13g2_hbt_mod.lib at or
 near line 425
 No model parameter TRC1 found for model PNPMPA_MOD of type PNP, parameter
 ignored.
Netlist warning in file
 /home/ich/share/pdk/ihp-sg13g2/libs.tech/xyce/models/sg13g2_hbt_mod.lib at or
 near line 425
 No model parameter TRC2 found for model PNPMPA_MOD of type PNP, parameter
 ignored.
Netlist warning in file
 /home/ich/share/pdk/ihp-sg13g2/libs.tech/xyce/models/sg13g2_hbt_mod.lib at or
 near line 425
 No model parameter TRE1 found for model PNPMPA_MOD of type PNP, parameter
 ignored.
Netlist warning in file
 /home/ich/share/pdk/ihp-sg13g2/libs.tech/xyce/models/sg13g2_hbt_mod.lib at or
 near line 425
 No model parameter TRE2 found for model PNPMPA_MOD of type PNP, parameter
 ignored.
Netlist warning in file
 /home/ich/share/pdk/ihp-sg13g2/libs.tech/xyce/models/sg13g2_moshv_parm.lib at
 or near line 62
 No model parameter MUNQSO found for model SG13G2_HV_NMOS_PSP of type
 PSP103_VA, parameter ignored.
Netlist warning in file
 /home/ich/share/pdk/ihp-sg13g2/libs.tech/xyce/models/sg13g2_moshv_parm.lib at
 or near line 62
 No model parameter SWNQS found for model SG13G2_HV_NMOS_PSP of type
 PSP103_VA, parameter ignored.
***** Setting up topology...

Netlist warning: Voltage Node (REFADJ) connected to only 1 device Terminal
***** Device Count Summary ...
       C level 1 (Capacitor)                    6
       PSP103_VA level 1 (ADMS PSP103_VA)      35
       Q level 1 (Bipolar Junction Transistor)  1
       R level 1 (Resistor)                    19
       V level 1 (Independent Voltage Source)  29
       ------------------------------------------
       Total Devices                           90
***** Setting up matrix structure...
***** Number of Unknowns = 186
***** Initializing...


***** Solution Summary *****
	Number Successful Steps Taken:		192
	Number Failed Steps Attempted:		6
	Number Jacobians Evaluated:		78191
	Number Linear Solves:			78191
	Number Failed Linear Solves:		0
	Number Residual Evaluations:		79978
	Number Nonlinear Convergence Failures:	6
	Total Residual Load Time:		32.4938 seconds
	Total Jacobian Load Time:		2.55676 seconds
	Total Linear Solution Time:		6.56103 seconds

	Failed DC sweep steps:		
		DC Step # 19
		DC Step # 7
		DC Step # 19
		DC Step # 19
		DC Step # 18
		DC Step # 18

***** Total Simulation Solvers Run Time: 55.5403 seconds
***** Total Elapsed Run Time:            55.9657 seconds
*****
***** End of Xyce(TM) Simulation
*****

Timing summary of 1 processor
                 Stats                   Count       CPU Time              Wall Time
---------------------------------------- ----- --------------------- ---------------------
Xyce                                         1       48.819 (100.0%)       55.972 (100.0%)
  Analysis                                   1       48.633 (99.62%)       55.534 (99.22%)
    Step                                     1       48.633 (99.62%)       55.534 (99.22%)
      DC Sweep                               6       48.630 (99.61%)       55.530 (99.21%)
        Solve                              198       48.612 (99.58%)       55.496 (99.15%)
          Residual                       79978       31.198 (63.91%)       36.687 (65.55%)
          Jacobian                       78191        2.645 ( 5.42%)        2.773 ( 4.95%)
          Linear Solve                   78191        6.562 (13.44%)        7.166 (12.80%)
        Successful Step                    192        0.009 ( 0.02%)        0.010 ( 0.02%)
        Failed Steps                         6        0.000 (<0.01%)        0.000 (<0.01%)
  Netlist Import                             1        0.170 ( 0.35%)        0.382 ( 0.68%)
    Parse Context                            1        0.027 ( 0.05%)        0.055 ( 0.10%)
    Distribute Devices                       1        0.138 ( 0.28%)        0.308 ( 0.55%)
    Verify Devices                           1        0.000 (<0.01%)        0.000 (<0.01%)
    Instantiate                              1        0.005 (<0.01%)        0.018 ( 0.03%)
  Late Initialization                        1        0.011 ( 0.02%)        0.041 ( 0.07%)
    Global Indices                           1        0.001 (<0.01%)        0.001 (<0.01%)
  Setup Matrix Structure                     1        0.001 (<0.01%)        0.001 (<0.01%)

