
*****
***** Welcome to the Xyce(TM) Parallel Electronic Simulator
*****
***** This is version Xyce DEVELOPMENT-202409220015-(Public_Release-7.8.0-128-g5b74b0d5)-opensource
***** Date: Sun Dec 15 00:39:39 CET 2024


***** Executing netlist /ALL/git_olisnr/TO_Dec2024/RF_amplifiers/design_data/xschem/shunt_regulator/simulation/SHUNT_3V1_ac_mosss.spice

***** Reading and parsing netlist...
Netlist warning in file
 /home/ich/share/pdk/ihp-sg13g2/libs.tech/xyce/models/sg13g2_moshv_parm.lib at
 or near line 212
 No model parameter MUNQSO found for model SG13G2_HV_PMOS_PSP of type
 PSP103_VA, parameter ignored.
Netlist warning in file
 /home/ich/share/pdk/ihp-sg13g2/libs.tech/xyce/models/sg13g2_moshv_parm.lib at
 or near line 212
 No model parameter SWNQS found for model SG13G2_HV_PMOS_PSP of type
 PSP103_VA, parameter ignored.
Netlist warning in file
 /home/ich/share/pdk/ihp-sg13g2/libs.tech/xyce/models/sg13g2_hbt_mod.lib at or
 near line 425
 No model parameter TRM1 found for model PNPMPA_MOD of type PNP, parameter
 ignored.
Netlist warning in file
 /home/ich/share/pdk/ihp-sg13g2/libs.tech/xyce/models/sg13g2_hbt_mod.lib at or
 near line 425
 No model parameter TRM2 found for model PNPMPA_MOD of type PNP, parameter
 ignored.
Netlist warning in file
 /home/ich/share/pdk/ihp-sg13g2/libs.tech/xyce/models/sg13g2_hbt_mod.lib at or
 near line 425
 No model parameter TRC1 found for model PNPMPA_MOD of type PNP, parameter
 ignored.
Netlist warning in file
 /home/ich/share/pdk/ihp-sg13g2/libs.tech/xyce/models/sg13g2_hbt_mod.lib at or
 near line 425
 No model parameter TRC2 found for model PNPMPA_MOD of type PNP, parameter
 ignored.
Netlist warning in file
 /home/ich/share/pdk/ihp-sg13g2/libs.tech/xyce/models/sg13g2_hbt_mod.lib at or
 near line 425
 No model parameter TRE1 found for model PNPMPA_MOD of type PNP, parameter
 ignored.
Netlist warning in file
 /home/ich/share/pdk/ihp-sg13g2/libs.tech/xyce/models/sg13g2_hbt_mod.lib at or
 near line 425
 No model parameter TRE2 found for model PNPMPA_MOD of type PNP, parameter
 ignored.
Netlist warning in file
 /home/ich/share/pdk/ihp-sg13g2/libs.tech/xyce/models/sg13g2_moshv_parm.lib at
 or near line 62
 No model parameter MUNQSO found for model SG13G2_HV_NMOS_PSP of type
 PSP103_VA, parameter ignored.
Netlist warning in file
 /home/ich/share/pdk/ihp-sg13g2/libs.tech/xyce/models/sg13g2_moshv_parm.lib at
 or near line 62
 No model parameter SWNQS found for model SG13G2_HV_NMOS_PSP of type
 PSP103_VA, parameter ignored.
***** Setting up topology...

Netlist warning: Voltage Node (REFADJ) connected to only 1 device Terminal
***** Device Count Summary ...
       C level 1 (Capacitor)                    6
       PSP103_VA level 1 (ADMS PSP103_VA)      35
       Q level 1 (Bipolar Junction Transistor)  1
       R level 1 (Resistor)                    19
       V level 1 (Independent Voltage Source)  29
       ------------------------------------------
       Total Devices                           90
***** Setting up matrix structure...
***** Number of Unknowns = 186
***** Initializing...

Netlist error: Solving for DC operating point failed! Cannot continue AC
 analysis
Simulation aborted due to error.  There are 0 MSG_FATAL errors and 1 MSG_ERROR
 errors
*** Xyce Abort ***
