
*****
***** Welcome to the Xyce(TM) Parallel Electronic Simulator
*****
***** This is version Xyce DEVELOPMENT-202409220015-(Public_Release-7.8.0-128-g5b74b0d5)-opensource
***** Date: Sun Dec 15 00:26:39 CET 2024


***** Executing netlist /ALL/git_olisnr/TO_Dec2024/RF_amplifiers/design_data/xschem/amplifiers/simulation/amplifiers_TB_xyce_temp_mostt_hbtwcs.spice

***** Reading and parsing netlist...
***** Setting up topology...

Netlist warning: Voltage Node (X12:XQ8:T) connected to only 1 device Terminal
Netlist warning: Voltage Node (X12:XQ10:T) connected to only 1 device Terminal
Netlist warning: Voltage Node (X12:XQ2:T) connected to only 1 device Terminal
Netlist warning: Voltage Node (X12:XQ1:T) connected to only 1 device Terminal
Netlist warning: Voltage Node (NET17) connected to only 1 device Terminal
Netlist warning: Voltage Node (X12:XQ7:T) connected to only 1 device Terminal
Netlist warning: Voltage Node (NET1) connected to only 1 device Terminal
Netlist warning: Voltage Node (X4:XQ8:T) connected to only 1 device Terminal
Netlist warning: Voltage Node (X2:XQ14:T) connected to only 1 device Terminal
Netlist warning: Voltage Node (X2:XQ3:T) connected to only 1 device Terminal
Netlist warning: Voltage Node (X1:XQ14:T) connected to only 1 device Terminal
Netlist warning: Voltage Node (X1:XQ11:T) connected to only 1 device Terminal
Netlist warning: Voltage Node (X2:XQ4:T) connected to only 1 device Terminal
Netlist warning: Voltage Node (X2:XQ11:T) connected to only 1 device Terminal
Netlist warning: Voltage Node (X2:XQ2:T) connected to only 1 device Terminal
Netlist warning: Voltage Node (X12:XQ6:T) connected to only 1 device Terminal
Netlist warning: Voltage Node (X12:XQ5:T) connected to only 1 device Terminal
Netlist warning: Voltage Node (X1:XQ2:T) connected to only 1 device Terminal
Netlist warning: Voltage Node (X3:XQ11:T) connected to only 1 device Terminal
Netlist warning: Voltage Node (X4:XQ10:T) connected to only 1 device Terminal
Netlist warning: Voltage Node (X3:XQ8:T) connected to only 1 device Terminal
Netlist warning: Voltage Node (NET6) connected to only 1 device Terminal
Netlist warning: Voltage Node (X4:XQ9:T) connected to only 1 device Terminal
Netlist warning: Voltage Node (X2:XQ1:T) connected to only 1 device Terminal
Netlist warning: Voltage Node (NET18) connected to only 1 device Terminal
Netlist warning: Voltage Node (X1:XQ4:T) connected to only 1 device Terminal
Netlist warning: Voltage Node (X2:XQ9:T) connected to only 1 device Terminal
Netlist warning: Voltage Node (X3:XQ5:T) connected to only 1 device Terminal
Netlist warning: Voltage Node (X1:XQ9:T) connected to only 1 device Terminal
Netlist warning: Voltage Node (X2:XQ8:T) connected to only 1 device Terminal
Netlist warning: Voltage Node (X3:XQ1:T) connected to only 1 device Terminal
Netlist warning: Voltage Node (X2:XQ5:T) connected to only 1 device Terminal
Netlist warning: Voltage Node (X2:XQ6:T) connected to only 1 device Terminal
Netlist warning: Voltage Node (X3:XQ9:T) connected to only 1 device Terminal
Netlist warning: Voltage Node (X3:XQ12:T) connected to only 1 device Terminal
Netlist warning: Voltage Node (X4:XQ12:T) connected to only 1 device Terminal
Netlist warning: Voltage Node (X4:XQ5:T) connected to only 1 device Terminal
Netlist warning: Voltage Node (X3:XQ7:T) connected to only 1 device Terminal
Netlist warning: Voltage Node (X4:XQ1:T) connected to only 1 device Terminal
Netlist warning: Voltage Node (X12:XQ9:T) connected to only 1 device Terminal
Netlist warning: Voltage Node (X1:XQ1:T) connected to only 1 device Terminal
Netlist warning: Voltage Node (X2:XQ7:T) connected to only 1 device Terminal
Netlist warning: Voltage Node (X1:XQ10:T) connected to only 1 device Terminal
Netlist warning: Voltage Node (X1:XQ3:T) connected to only 1 device Terminal
Netlist warning: Voltage Node (X3:XQ10:T) connected to only 1 device Terminal
Netlist warning: Voltage Node (X1:XQ5:T) connected to only 1 device Terminal
Netlist warning: Voltage Node (X1:XQ8:T) connected to only 1 device Terminal
Netlist warning: Voltage Node (NET7) connected to only 1 device Terminal
Netlist warning: Voltage Node (X1:XQ7:T) connected to only 1 device Terminal
Netlist warning: Voltage Node (X4:XQ4:T) connected to only 1 device Terminal
Netlist warning: Voltage Node (X2:XQ10:T) connected to only 1 device Terminal
Netlist warning: Voltage Node (X4:XQ11:T) connected to only 1 device Terminal
Netlist warning: Voltage Node (X3:XQ3:T) connected to only 1 device Terminal
Netlist warning: Voltage Node (X12:XQ11:T) connected to only 1 device Terminal
Netlist warning: Voltage Node (X4:XQ7:T) connected to only 1 device Terminal
Netlist warning: Voltage Node (X1:XQ6:T) connected to only 1 device Terminal
Netlist warning: Voltage Node (X3:XQ4:T) connected to only 1 device Terminal
Netlist warning: Voltage Node (X4:XQ3:T) connected to only 1 device Terminal
Netlist warning: Voltage Node (X12:XQ8:T) does not have a DC path to ground
Netlist warning: Voltage Node (X12:XQ10:T) does not have a DC path to ground
Netlist warning: Voltage Node (X12:XQ2:T) does not have a DC path to ground
Netlist warning: Voltage Node (X12:XQ1:T) does not have a DC path to ground
Netlist warning: Voltage Node (X12:XQ7:T) does not have a DC path to ground
Netlist warning: Voltage Node (X4:XQ8:T) does not have a DC path to ground
Netlist warning: Voltage Node (X2:XQ14:T) does not have a DC path to ground
Netlist warning: Voltage Node (X2:XQ3:T) does not have a DC path to ground
Netlist warning: Voltage Node (X1:XQ14:T) does not have a DC path to ground
Netlist warning: Voltage Node (X1:XQ11:T) does not have a DC path to ground
Netlist warning: Voltage Node (X2:XQ4:T) does not have a DC path to ground
Netlist warning: Voltage Node (X2:XQ11:T) does not have a DC path to ground
Netlist warning: Voltage Node (X2:XQ2:T) does not have a DC path to ground
Netlist warning: Voltage Node (X12:XQ6:T) does not have a DC path to ground
Netlist warning: Voltage Node (X12:XQ5:T) does not have a DC path to ground
Netlist warning: Voltage Node (X1:XQ2:T) does not have a DC path to ground
Netlist warning: Voltage Node (X3:XQ11:T) does not have a DC path to ground
Netlist warning: Voltage Node (X4:XQ10:T) does not have a DC path to ground
Netlist warning: Voltage Node (X3:XQ8:T) does not have a DC path to ground
Netlist warning: Voltage Node (X4:XQ9:T) does not have a DC path to ground
Netlist warning: Voltage Node (X2:XQ1:T) does not have a DC path to ground
Netlist warning: Voltage Node (X1:XQ4:T) does not have a DC path to ground
Netlist warning: Voltage Node (X2:XQ9:T) does not have a DC path to ground
Netlist warning: Voltage Node (X3:XQ5:T) does not have a DC path to ground
Netlist warning: Voltage Node (X1:XQ9:T) does not have a DC path to ground
Netlist warning: Voltage Node (X2:XQ8:T) does not have a DC path to ground
Netlist warning: Voltage Node (X3:XQ1:T) does not have a DC path to ground
Netlist warning: Voltage Node (X2:XQ5:T) does not have a DC path to ground
Netlist warning: Voltage Node (X2:XQ6:T) does not have a DC path to ground
Netlist warning: Voltage Node (X3:XQ9:T) does not have a DC path to ground
Netlist warning: Voltage Node (X3:XQ12:T) does not have a DC path to ground
Netlist warning: Voltage Node (X4:XQ12:T) does not have a DC path to ground
Netlist warning: Voltage Node (X4:XQ5:T) does not have a DC path to ground
Netlist warning: Voltage Node (X3:XQ7:T) does not have a DC path to ground
Netlist warning: Voltage Node (X4:XQ1:T) does not have a DC path to ground
Netlist warning: Voltage Node (X12:XQ9:T) does not have a DC path to ground
Netlist warning: Voltage Node (X1:XQ1:T) does not have a DC path to ground
Netlist warning: Voltage Node (X2:XQ7:T) does not have a DC path to ground
Netlist warning: Voltage Node (X1:XQ10:T) does not have a DC path to ground
Netlist warning: Voltage Node (X1:XQ3:T) does not have a DC path to ground
Netlist warning: Voltage Node (X3:XQ10:T) does not have a DC path to ground
Netlist warning: Voltage Node (X1:XQ5:T) does not have a DC path to ground
Maximum warning count has been exceeded and will no longer be displayed
***** Device Count Summary ...
       C level 1 (Capacitor)                                 62
       E level 1 (Linear Voltage Controlled Voltage Source)   3
       Q level 12 (VBIC 1.3 4T)                              53
       R level 1 (Resistor)                                 122
       V level 1 (Independent Voltage Source)                87
       --------------------------------------------------------
       Total Devices                                        327
***** Setting up matrix structure...
***** Number of Unknowns = 837
***** Initializing...


***** Solution Summary *****
	Number Successful Steps Taken:		17
	Number Failed Steps Attempted:		0
	Number Jacobians Evaluated:		802
	Number Linear Solves:			802
	Number Failed Linear Solves:		2
	Number Residual Evaluations:		929
	Number Nonlinear Convergence Failures:	0
	Total Residual Load Time:		0.702658 seconds
	Total Jacobian Load Time:		0.160091 seconds
	Total Linear Solution Time:		0.490986 seconds


***** Total Simulation Solvers Run Time: 1.74171 seconds
***** Total Elapsed Run Time:            1.88341 seconds
*****
***** End of Xyce(TM) Simulation
*****

Timing summary of 1 processor
                 Stats                   Count       CPU Time              Wall Time
---------------------------------------- ----- --------------------- ---------------------
Xyce                                         1        1.824 (100.0%)        1.891 (100.0%)
  Analysis                                   1        1.718 (94.19%)        1.742 (92.08%)
    DC Sweep                                 1        1.718 (94.19%)        1.742 (92.08%)
      Solve                                 17        1.702 (93.32%)        1.725 (91.20%)
        Residual                           929        0.697 (38.22%)        0.708 (37.44%)
        Jacobian                           802        0.161 ( 8.82%)        0.163 ( 8.60%)
        Linear Solve                       802        0.489 (26.78%)        0.495 (26.17%)
      Successful Step                       17        0.004 ( 0.22%)        0.004 ( 0.22%)
  Netlist Import                             1        0.087 ( 4.75%)        0.118 ( 6.23%)
    Parse Context                            1        0.016 ( 0.90%)        0.027 ( 1.41%)
    Distribute Devices                       1        0.065 ( 3.57%)        0.084 ( 4.43%)
    Verify Devices                           1        0.000 (<0.01%)        0.000 (<0.01%)
    Instantiate                              1        0.003 ( 0.18%)        0.003 ( 0.18%)
  Late Initialization                        1        0.015 ( 0.85%)        0.016 ( 0.82%)
    Global Indices                           1        0.002 ( 0.13%)        0.002 ( 0.12%)
  Setup Matrix Structure                     1        0.002 ( 0.13%)        0.002 ( 0.12%)

