
*****
***** Welcome to the Xyce(TM) Parallel Electronic Simulator
*****
***** This is version Xyce DEVELOPMENT-202409220015-(Public_Release-7.8.0-128-g5b74b0d5)-opensource
***** Date: Sun Dec 15 00:26:39 CET 2024


***** Executing netlist /ALL/git_olisnr/TO_Dec2024/RF_amplifiers/design_data/xschem/amplifiers/simulation/amplifiers_TB_xyce_dc_mostt_hbtbcs.spice

***** Reading and parsing netlist...
***** Setting up topology...

Netlist warning: Voltage Node (X12:XQ8:T) connected to only 1 device Terminal
Netlist warning: Voltage Node (X12:XQ10:T) connected to only 1 device Terminal
Netlist warning: Voltage Node (X12:XQ2:T) connected to only 1 device Terminal
Netlist warning: Voltage Node (X12:XQ1:T) connected to only 1 device Terminal
Netlist warning: Voltage Node (NET17) connected to only 1 device Terminal
Netlist warning: Voltage Node (X12:XQ7:T) connected to only 1 device Terminal
Netlist warning: Voltage Node (NET1) connected to only 1 device Terminal
Netlist warning: Voltage Node (X4:XQ8:T) connected to only 1 device Terminal
Netlist warning: Voltage Node (X2:XQ14:T) connected to only 1 device Terminal
Netlist warning: Voltage Node (X2:XQ3:T) connected to only 1 device Terminal
Netlist warning: Voltage Node (X1:XQ14:T) connected to only 1 device Terminal
Netlist warning: Voltage Node (X1:XQ11:T) connected to only 1 device Terminal
Netlist warning: Voltage Node (X2:XQ4:T) connected to only 1 device Terminal
Netlist warning: Voltage Node (X2:XQ11:T) connected to only 1 device Terminal
Netlist warning: Voltage Node (X2:XQ2:T) connected to only 1 device Terminal
Netlist warning: Voltage Node (X12:XQ6:T) connected to only 1 device Terminal
Netlist warning: Voltage Node (X12:XQ5:T) connected to only 1 device Terminal
Netlist warning: Voltage Node (X1:XQ2:T) connected to only 1 device Terminal
Netlist warning: Voltage Node (X3:XQ11:T) connected to only 1 device Terminal
Netlist warning: Voltage Node (X4:XQ10:T) connected to only 1 device Terminal
Netlist warning: Voltage Node (X3:XQ8:T) connected to only 1 device Terminal
Netlist warning: Voltage Node (NET6) connected to only 1 device Terminal
Netlist warning: Voltage Node (X4:XQ9:T) connected to only 1 device Terminal
Netlist warning: Voltage Node (X2:XQ1:T) connected to only 1 device Terminal
Netlist warning: Voltage Node (NET18) connected to only 1 device Terminal
Netlist warning: Voltage Node (X1:XQ4:T) connected to only 1 device Terminal
Netlist warning: Voltage Node (X2:XQ9:T) connected to only 1 device Terminal
Netlist warning: Voltage Node (X3:XQ5:T) connected to only 1 device Terminal
Netlist warning: Voltage Node (X1:XQ9:T) connected to only 1 device Terminal
Netlist warning: Voltage Node (X2:XQ8:T) connected to only 1 device Terminal
Netlist warning: Voltage Node (X3:XQ1:T) connected to only 1 device Terminal
Netlist warning: Voltage Node (X2:XQ5:T) connected to only 1 device Terminal
Netlist warning: Voltage Node (X2:XQ6:T) connected to only 1 device Terminal
Netlist warning: Voltage Node (X3:XQ9:T) connected to only 1 device Terminal
Netlist warning: Voltage Node (X3:XQ12:T) connected to only 1 device Terminal
Netlist warning: Voltage Node (X4:XQ12:T) connected to only 1 device Terminal
Netlist warning: Voltage Node (X4:XQ5:T) connected to only 1 device Terminal
Netlist warning: Voltage Node (X3:XQ7:T) connected to only 1 device Terminal
Netlist warning: Voltage Node (X4:XQ1:T) connected to only 1 device Terminal
Netlist warning: Voltage Node (X12:XQ9:T) connected to only 1 device Terminal
Netlist warning: Voltage Node (X1:XQ1:T) connected to only 1 device Terminal
Netlist warning: Voltage Node (X2:XQ7:T) connected to only 1 device Terminal
Netlist warning: Voltage Node (X1:XQ10:T) connected to only 1 device Terminal
Netlist warning: Voltage Node (X1:XQ3:T) connected to only 1 device Terminal
Netlist warning: Voltage Node (X3:XQ10:T) connected to only 1 device Terminal
Netlist warning: Voltage Node (X1:XQ5:T) connected to only 1 device Terminal
Netlist warning: Voltage Node (X1:XQ8:T) connected to only 1 device Terminal
Netlist warning: Voltage Node (NET7) connected to only 1 device Terminal
Netlist warning: Voltage Node (X1:XQ7:T) connected to only 1 device Terminal
Netlist warning: Voltage Node (X4:XQ4:T) connected to only 1 device Terminal
Netlist warning: Voltage Node (X2:XQ10:T) connected to only 1 device Terminal
Netlist warning: Voltage Node (X4:XQ11:T) connected to only 1 device Terminal
Netlist warning: Voltage Node (X3:XQ3:T) connected to only 1 device Terminal
Netlist warning: Voltage Node (X12:XQ11:T) connected to only 1 device Terminal
Netlist warning: Voltage Node (X4:XQ7:T) connected to only 1 device Terminal
Netlist warning: Voltage Node (X1:XQ6:T) connected to only 1 device Terminal
Netlist warning: Voltage Node (X3:XQ4:T) connected to only 1 device Terminal
Netlist warning: Voltage Node (X4:XQ3:T) connected to only 1 device Terminal
Netlist warning: Voltage Node (X12:XQ8:T) does not have a DC path to ground
Netlist warning: Voltage Node (X12:XQ10:T) does not have a DC path to ground
Netlist warning: Voltage Node (X12:XQ2:T) does not have a DC path to ground
Netlist warning: Voltage Node (X12:XQ1:T) does not have a DC path to ground
Netlist warning: Voltage Node (X12:XQ7:T) does not have a DC path to ground
Netlist warning: Voltage Node (X4:XQ8:T) does not have a DC path to ground
Netlist warning: Voltage Node (X2:XQ14:T) does not have a DC path to ground
Netlist warning: Voltage Node (X2:XQ3:T) does not have a DC path to ground
Netlist warning: Voltage Node (X1:XQ14:T) does not have a DC path to ground
Netlist warning: Voltage Node (X1:XQ11:T) does not have a DC path to ground
Netlist warning: Voltage Node (X2:XQ4:T) does not have a DC path to ground
Netlist warning: Voltage Node (X2:XQ11:T) does not have a DC path to ground
Netlist warning: Voltage Node (X2:XQ2:T) does not have a DC path to ground
Netlist warning: Voltage Node (X12:XQ6:T) does not have a DC path to ground
Netlist warning: Voltage Node (X12:XQ5:T) does not have a DC path to ground
Netlist warning: Voltage Node (X1:XQ2:T) does not have a DC path to ground
Netlist warning: Voltage Node (X3:XQ11:T) does not have a DC path to ground
Netlist warning: Voltage Node (X4:XQ10:T) does not have a DC path to ground
Netlist warning: Voltage Node (X3:XQ8:T) does not have a DC path to ground
Netlist warning: Voltage Node (X4:XQ9:T) does not have a DC path to ground
Netlist warning: Voltage Node (X2:XQ1:T) does not have a DC path to ground
Netlist warning: Voltage Node (X1:XQ4:T) does not have a DC path to ground
Netlist warning: Voltage Node (X2:XQ9:T) does not have a DC path to ground
Netlist warning: Voltage Node (X3:XQ5:T) does not have a DC path to ground
Netlist warning: Voltage Node (X1:XQ9:T) does not have a DC path to ground
Netlist warning: Voltage Node (X2:XQ8:T) does not have a DC path to ground
Netlist warning: Voltage Node (X3:XQ1:T) does not have a DC path to ground
Netlist warning: Voltage Node (X2:XQ5:T) does not have a DC path to ground
Netlist warning: Voltage Node (X2:XQ6:T) does not have a DC path to ground
Netlist warning: Voltage Node (X3:XQ9:T) does not have a DC path to ground
Netlist warning: Voltage Node (X3:XQ12:T) does not have a DC path to ground
Netlist warning: Voltage Node (X4:XQ12:T) does not have a DC path to ground
Netlist warning: Voltage Node (X4:XQ5:T) does not have a DC path to ground
Netlist warning: Voltage Node (X3:XQ7:T) does not have a DC path to ground
Netlist warning: Voltage Node (X4:XQ1:T) does not have a DC path to ground
Netlist warning: Voltage Node (X12:XQ9:T) does not have a DC path to ground
Netlist warning: Voltage Node (X1:XQ1:T) does not have a DC path to ground
Netlist warning: Voltage Node (X2:XQ7:T) does not have a DC path to ground
Netlist warning: Voltage Node (X1:XQ10:T) does not have a DC path to ground
Netlist warning: Voltage Node (X1:XQ3:T) does not have a DC path to ground
Netlist warning: Voltage Node (X3:XQ10:T) does not have a DC path to ground
Netlist warning: Voltage Node (X1:XQ5:T) does not have a DC path to ground
Maximum warning count has been exceeded and will no longer be displayed
***** Device Count Summary ...
       C level 1 (Capacitor)                                 62
       E level 1 (Linear Voltage Controlled Voltage Source)   3
       Q level 12 (VBIC 1.3 4T)                              53
       R level 1 (Resistor)                                 122
       V level 1 (Independent Voltage Source)                87
       --------------------------------------------------------
       Total Devices                                        327
***** Setting up matrix structure...
***** Number of Unknowns = 837
***** Initializing...


***** Solution Summary *****
	Number Successful Steps Taken:		2706
	Number Failed Steps Attempted:		0
	Number Jacobians Evaluated:		9438
	Number Linear Solves:			9438
	Number Failed Linear Solves:		8
	Number Residual Evaluations:		12265
	Number Nonlinear Convergence Failures:	0
	Total Residual Load Time:		3.78691 seconds
	Total Jacobian Load Time:		0.762941 seconds
	Total Linear Solution Time:		3.20466 seconds


***** Total Simulation Solvers Run Time: 8.9689 seconds
***** Total Elapsed Run Time:            9.08379 seconds
*****
***** End of Xyce(TM) Simulation
*****

Timing summary of 1 processor
                 Stats                   Count       CPU Time              Wall Time
---------------------------------------- ----- --------------------- ---------------------
Xyce                                         1        8.706 (100.0%)        9.086 (100.0%)
  Analysis                                   1        8.603 (98.82%)        8.969 (98.71%)
    Step                                     1        8.603 (98.81%)        8.969 (98.71%)
      DC Sweep                               6        8.600 (98.78%)        8.966 (98.68%)
        Solve                             2706        8.323 (95.59%)        8.677 (95.50%)
          Residual                       12265        3.684 (42.31%)        3.832 (42.17%)
          Jacobian                        9438        0.755 ( 8.68%)        0.793 ( 8.73%)
          Linear Solve                    9438        3.135 (36.00%)        3.261 (35.89%)
        Successful Step                   2706        0.170 ( 1.95%)        0.177 ( 1.95%)
  Netlist Import                             1        0.089 ( 1.02%)        0.099 ( 1.09%)
    Parse Context                            1        0.015 ( 0.17%)        0.019 ( 0.21%)
    Distribute Devices                       1        0.069 ( 0.80%)        0.075 ( 0.83%)
    Verify Devices                           1        0.000 (<0.01%)        0.000 (<0.01%)
    Instantiate                              1        0.004 ( 0.05%)        0.004 ( 0.04%)
  Late Initialization                        1        0.012 ( 0.14%)        0.014 ( 0.16%)
    Global Indices                           1        0.002 ( 0.02%)        0.002 ( 0.02%)
  Setup Matrix Structure                     1        0.002 ( 0.02%)        0.002 ( 0.02%)

