
*****
***** Welcome to the Xyce(TM) Parallel Electronic Simulator
*****
***** This is version Xyce DEVELOPMENT-202409220015-(Public_Release-7.8.0-128-g5b74b0d5)-opensource
***** Date: Sun Dec 15 00:26:39 CET 2024


***** Executing netlist /ALL/git_olisnr/TO_Dec2024/RF_amplifiers/design_data/xschem/amplifiers/simulation/amplifiers_TB_xyce_op_mostt_hbttyp.spice

***** Reading and parsing netlist...
***** Setting up topology...

Netlist warning: Voltage Node (X12:XQ8:T) connected to only 1 device Terminal
Netlist warning: Voltage Node (X12:XQ10:T) connected to only 1 device Terminal
Netlist warning: Voltage Node (X12:XQ2:T) connected to only 1 device Terminal
Netlist warning: Voltage Node (X12:XQ1:T) connected to only 1 device Terminal
Netlist warning: Voltage Node (NET17) connected to only 1 device Terminal
Netlist warning: Voltage Node (X12:XQ7:T) connected to only 1 device Terminal
Netlist warning: Voltage Node (NET1) connected to only 1 device Terminal
Netlist warning: Voltage Node (X4:XQ8:T) connected to only 1 device Terminal
Netlist warning: Voltage Node (X2:XQ14:T) connected to only 1 device Terminal
Netlist warning: Voltage Node (X2:XQ3:T) connected to only 1 device Terminal
Netlist warning: Voltage Node (X1:XQ14:T) connected to only 1 device Terminal
Netlist warning: Voltage Node (X1:XQ11:T) connected to only 1 device Terminal
Netlist warning: Voltage Node (X2:XQ4:T) connected to only 1 device Terminal
Netlist warning: Voltage Node (X2:XQ11:T) connected to only 1 device Terminal
Netlist warning: Voltage Node (X2:XQ2:T) connected to only 1 device Terminal
Netlist warning: Voltage Node (X12:XQ6:T) connected to only 1 device Terminal
Netlist warning: Voltage Node (X12:XQ5:T) connected to only 1 device Terminal
Netlist warning: Voltage Node (X1:XQ2:T) connected to only 1 device Terminal
Netlist warning: Voltage Node (X3:XQ11:T) connected to only 1 device Terminal
Netlist warning: Voltage Node (X4:XQ10:T) connected to only 1 device Terminal
Netlist warning: Voltage Node (X3:XQ8:T) connected to only 1 device Terminal
Netlist warning: Voltage Node (NET6) connected to only 1 device Terminal
Netlist warning: Voltage Node (X4:XQ9:T) connected to only 1 device Terminal
Netlist warning: Voltage Node (X2:XQ1:T) connected to only 1 device Terminal
Netlist warning: Voltage Node (NET18) connected to only 1 device Terminal
Netlist warning: Voltage Node (X1:XQ4:T) connected to only 1 device Terminal
Netlist warning: Voltage Node (X2:XQ9:T) connected to only 1 device Terminal
Netlist warning: Voltage Node (X3:XQ5:T) connected to only 1 device Terminal
Netlist warning: Voltage Node (X1:XQ9:T) connected to only 1 device Terminal
Netlist warning: Voltage Node (X2:XQ8:T) connected to only 1 device Terminal
Netlist warning: Voltage Node (X3:XQ1:T) connected to only 1 device Terminal
Netlist warning: Voltage Node (X2:XQ5:T) connected to only 1 device Terminal
Netlist warning: Voltage Node (X2:XQ6:T) connected to only 1 device Terminal
Netlist warning: Voltage Node (X3:XQ9:T) connected to only 1 device Terminal
Netlist warning: Voltage Node (X3:XQ12:T) connected to only 1 device Terminal
Netlist warning: Voltage Node (X4:XQ12:T) connected to only 1 device Terminal
Netlist warning: Voltage Node (X4:XQ5:T) connected to only 1 device Terminal
Netlist warning: Voltage Node (X3:XQ7:T) connected to only 1 device Terminal
Netlist warning: Voltage Node (X4:XQ1:T) connected to only 1 device Terminal
Netlist warning: Voltage Node (X12:XQ9:T) connected to only 1 device Terminal
Netlist warning: Voltage Node (X1:XQ1:T) connected to only 1 device Terminal
Netlist warning: Voltage Node (X2:XQ7:T) connected to only 1 device Terminal
Netlist warning: Voltage Node (X1:XQ10:T) connected to only 1 device Terminal
Netlist warning: Voltage Node (X1:XQ3:T) connected to only 1 device Terminal
Netlist warning: Voltage Node (X3:XQ10:T) connected to only 1 device Terminal
Netlist warning: Voltage Node (X1:XQ5:T) connected to only 1 device Terminal
Netlist warning: Voltage Node (X1:XQ8:T) connected to only 1 device Terminal
Netlist warning: Voltage Node (NET7) connected to only 1 device Terminal
Netlist warning: Voltage Node (X1:XQ7:T) connected to only 1 device Terminal
Netlist warning: Voltage Node (X4:XQ4:T) connected to only 1 device Terminal
Netlist warning: Voltage Node (X2:XQ10:T) connected to only 1 device Terminal
Netlist warning: Voltage Node (X4:XQ11:T) connected to only 1 device Terminal
Netlist warning: Voltage Node (X3:XQ3:T) connected to only 1 device Terminal
Netlist warning: Voltage Node (X12:XQ11:T) connected to only 1 device Terminal
Netlist warning: Voltage Node (X4:XQ7:T) connected to only 1 device Terminal
Netlist warning: Voltage Node (X1:XQ6:T) connected to only 1 device Terminal
Netlist warning: Voltage Node (X3:XQ4:T) connected to only 1 device Terminal
Netlist warning: Voltage Node (X4:XQ3:T) connected to only 1 device Terminal
Netlist warning: Voltage Node (X12:XQ8:T) does not have a DC path to ground
Netlist warning: Voltage Node (X12:XQ10:T) does not have a DC path to ground
Netlist warning: Voltage Node (X12:XQ2:T) does not have a DC path to ground
Netlist warning: Voltage Node (X12:XQ1:T) does not have a DC path to ground
Netlist warning: Voltage Node (X12:XQ7:T) does not have a DC path to ground
Netlist warning: Voltage Node (X4:XQ8:T) does not have a DC path to ground
Netlist warning: Voltage Node (X2:XQ14:T) does not have a DC path to ground
Netlist warning: Voltage Node (X2:XQ3:T) does not have a DC path to ground
Netlist warning: Voltage Node (X1:XQ14:T) does not have a DC path to ground
Netlist warning: Voltage Node (X1:XQ11:T) does not have a DC path to ground
Netlist warning: Voltage Node (X2:XQ4:T) does not have a DC path to ground
Netlist warning: Voltage Node (X2:XQ11:T) does not have a DC path to ground
Netlist warning: Voltage Node (X2:XQ2:T) does not have a DC path to ground
Netlist warning: Voltage Node (X12:XQ6:T) does not have a DC path to ground
Netlist warning: Voltage Node (X12:XQ5:T) does not have a DC path to ground
Netlist warning: Voltage Node (X1:XQ2:T) does not have a DC path to ground
Netlist warning: Voltage Node (X3:XQ11:T) does not have a DC path to ground
Netlist warning: Voltage Node (X4:XQ10:T) does not have a DC path to ground
Netlist warning: Voltage Node (X3:XQ8:T) does not have a DC path to ground
Netlist warning: Voltage Node (X4:XQ9:T) does not have a DC path to ground
Netlist warning: Voltage Node (X2:XQ1:T) does not have a DC path to ground
Netlist warning: Voltage Node (X1:XQ4:T) does not have a DC path to ground
Netlist warning: Voltage Node (X2:XQ9:T) does not have a DC path to ground
Netlist warning: Voltage Node (X3:XQ5:T) does not have a DC path to ground
Netlist warning: Voltage Node (X1:XQ9:T) does not have a DC path to ground
Netlist warning: Voltage Node (X2:XQ8:T) does not have a DC path to ground
Netlist warning: Voltage Node (X3:XQ1:T) does not have a DC path to ground
Netlist warning: Voltage Node (X2:XQ5:T) does not have a DC path to ground
Netlist warning: Voltage Node (X2:XQ6:T) does not have a DC path to ground
Netlist warning: Voltage Node (X3:XQ9:T) does not have a DC path to ground
Netlist warning: Voltage Node (X3:XQ12:T) does not have a DC path to ground
Netlist warning: Voltage Node (X4:XQ12:T) does not have a DC path to ground
Netlist warning: Voltage Node (X4:XQ5:T) does not have a DC path to ground
Netlist warning: Voltage Node (X3:XQ7:T) does not have a DC path to ground
Netlist warning: Voltage Node (X4:XQ1:T) does not have a DC path to ground
Netlist warning: Voltage Node (X12:XQ9:T) does not have a DC path to ground
Netlist warning: Voltage Node (X1:XQ1:T) does not have a DC path to ground
Netlist warning: Voltage Node (X2:XQ7:T) does not have a DC path to ground
Netlist warning: Voltage Node (X1:XQ10:T) does not have a DC path to ground
Netlist warning: Voltage Node (X1:XQ3:T) does not have a DC path to ground
Netlist warning: Voltage Node (X3:XQ10:T) does not have a DC path to ground
Netlist warning: Voltage Node (X1:XQ5:T) does not have a DC path to ground
Maximum warning count has been exceeded and will no longer be displayed
***** Device Count Summary ...
       C level 1 (Capacitor)                                 62
       E level 1 (Linear Voltage Controlled Voltage Source)   3
       Q level 12 (VBIC 1.3 4T)                              53
       R level 1 (Resistor)                                 122
       V level 1 (Independent Voltage Source)                87
       --------------------------------------------------------
       Total Devices                                        327
***** Setting up matrix structure...
***** Number of Unknowns = 837
***** Initializing...

------------------------------------------------------------
Operating point information:
Number of Capacitor models: 2
          name C level 1 (Capacitor)      CMIM_CORE
          type                              C
         level               1              1
           TNOM             27             27
            TC2              0          2e-09
           DEFW          1e-06          1e-06
           CJSW              0          4e-17
            TC1              0        3.6e-06
         NARROW              0              0
             CJ              0        1.5e-15
              C              1              1

Number of Capacitor instances: 62
          name              C1             C2             C3             C4  X12:XQ10:CSUB  X12:XQ11:CSUB   X12:XQ1:CSUB
   X12:XQ2:CSUB   X12:XQ5:CSUB   X12:XQ6:CSUB   X12:XQ7:CSUB   X12:XQ8:CSUB   X12:XQ9:CSUB   X1:XQ10:CSUB   X1:XQ11:CSUB
   X1:XQ14:CSUB    X1:XQ1:CSUB    X1:XQ2:CSUB    X1:XQ3:CSUB    X1:XQ4:CSUB    X1:XQ5:CSUB    X1:XQ6:CSUB    X1:XQ7:CSUB
    X1:XQ8:CSUB    X1:XQ9:CSUB   X2:XQ10:CSUB   X2:XQ11:CSUB   X2:XQ14:CSUB    X2:XQ1:CSUB    X2:XQ2:CSUB    X2:XQ3:CSUB
    X2:XQ4:CSUB    X2:XQ5:CSUB    X2:XQ6:CSUB    X2:XQ7:CSUB    X2:XQ8:CSUB    X2:XQ9:CSUB          X3:C1          X3:C2
   X3:XQ10:CSUB   X3:XQ11:CSUB   X3:XQ12:CSUB    X3:XQ1:CSUB    X3:XQ3:CSUB    X3:XQ4:CSUB    X3:XQ5:CSUB    X3:XQ7:CSUB
    X3:XQ8:CSUB    X3:XQ9:CSUB          X4:C1          X4:C2   X4:XQ10:CSUB   X4:XQ11:CSUB   X4:XQ12:CSUB    X4:XQ1:CSUB
    X4:XQ3:CSUB    X4:XQ4:CSUB    X4:XQ5:CSUB    X4:XQ7:CSUB    X4:XQ8:CSUB    X4:XQ9:CSUB     X12:XC2:C1
         model C level 1 (Capacitor)C level 1 (Capacitor)C level 1 (Capacitor)C level 1 (Capacitor)C level 1 (Capacitor)C level 1 (Capacitor)C level 1 (Capacitor)
C level 1 (Capacitor)C level 1 (Capacitor)C level 1 (Capacitor)C level 1 (Capacitor)C level 1 (Capacitor)C level 1 (Capacitor)C level 1 (Capacitor)C level 1 (Capacitor)
C level 1 (Capacitor)C level 1 (Capacitor)C level 1 (Capacitor)C level 1 (Capacitor)C level 1 (Capacitor)C level 1 (Capacitor)C level 1 (Capacitor)C level 1 (Capacitor)
C level 1 (Capacitor)C level 1 (Capacitor)C level 1 (Capacitor)C level 1 (Capacitor)C level 1 (Capacitor)C level 1 (Capacitor)C level 1 (Capacitor)C level 1 (Capacitor)
C level 1 (Capacitor)C level 1 (Capacitor)C level 1 (Capacitor)C level 1 (Capacitor)C level 1 (Capacitor)C level 1 (Capacitor)C level 1 (Capacitor)C level 1 (Capacitor)
C level 1 (Capacitor)C level 1 (Capacitor)C level 1 (Capacitor)C level 1 (Capacitor)C level 1 (Capacitor)C level 1 (Capacitor)C level 1 (Capacitor)C level 1 (Capacitor)
C level 1 (Capacitor)C level 1 (Capacitor)C level 1 (Capacitor)C level 1 (Capacitor)C level 1 (Capacitor)C level 1 (Capacitor)C level 1 (Capacitor)C level 1 (Capacitor)
C level 1 (Capacitor)C level 1 (Capacitor)C level 1 (Capacitor)C level 1 (Capacitor)C level 1 (Capacitor)C level 1 (Capacitor)      CMIM_CORE
            TC2              0              0              0              0              0              0              0
              0              0              0              0              0              0              0              0
              0              0              0              0              0              0              0              0
              0              0              0              0              0              0              0              0
              0              0              0              0              0              0              0              0
              0              0              0              0              0              0              0              0
              0              0              0              0              0              0              0              0
              0              0              0              0              0              0          2e-09
            TC1              0              0              0              0              0              0              0
              0              0              0              0              0              0              0              0
              0              0              0              0              0              0              0              0
              0              0              0              0              0              0              0              0
              0              0              0              0              0              0              0              0
              0              0              0              0              0              0              0              0
              0              0              0              0              0              0              0              0
              0              0              0              0              0              0        3.6e-06
          DTEMP              0              0              0              0              0              0              0
              0              0              0              0              0              0              0              0
              0              0              0              0              0              0              0              0
              0              0              0              0              0              0              0              0
              0              0              0              0              0              0              0              0
              0              0              0              0              0              0              0              0
              0              0              0              0              0              0              0              0
              0              0              0              0              0              0              0
           TEMP             27             27             27             27             27             27             27
             27             27             27             27             27             27             27             27
             27             27             27             27             27             27             27             27
             27             27             27             27             27             27             27             27
             27             27             27             27             27             27             27             27
             27             27             27             27             27             27             27             27
             27             27             27             27             27             27             27             27
             27             27             27             27             27             27             27
            AGE              0              0              0              0              0              0              0
              0              0              0              0              0              0              0              0
              0              0              0              0              0              0              0              0
              0              0              0              0              0              0              0              0
              0              0              0              0              0              0              0              0
              0              0              0              0              0              0              0              0
              0              0              0              0              0              0              0              0
              0              0              0              0              0              0              0
              W          1e-06          1e-06          1e-06          1e-06          1e-06          1e-06          1e-06
          1e-06          1e-06          1e-06          1e-06          1e-06          1e-06          1e-06          1e-06
          1e-06          1e-06          1e-06          1e-06          1e-06          1e-06          1e-06          1e-06
          1e-06          1e-06          1e-06          1e-06          1e-06          1e-06          1e-06          1e-06
          1e-06          1e-06          1e-06          1e-06          1e-06          1e-06          1e-06          1e-06
          1e-06          1e-06          1e-06          1e-06          1e-06          1e-06          1e-06          1e-06
          1e-06          1e-06          1e-06          1e-06          1e-06          1e-06          1e-06          1e-06
          1e-06          1e-06          1e-06          1e-06          1e-06          1e-06            375
              L              1              1              1              1              1              1              1
              1              1              1              1              1              1              1              1
              1              1              1              1              1              1              1              1
              1              1              1              1              1              1              1              1
              1              1              1              1              1              1              1              1
              1              1              1              1              1              1              1              1
              1              1              1              1              1              1              1              1
              1              1              1              1              1              1             75
             IC              0              0              0              0              0              0              0
              0              0              0              0              0              0              0              0
              0              0              0              0              0              0              0              0
              0              0              0              0              0              0              0              0
              0              0              0              0              0              0              0              0
              0              0              0              0              0              0              0              0
              0              0              0              0              0              0              0              0
              0              0              0              0              0              0              0
              M              1              1              1              1              1              1              1
              1              1              1              1              1              1              1              1
              1              1              1              1              1              1              1              1
              1              1              1              1              1              1              1              1
              1              1              1              1              1              1              1              1
              1              1              1              1              1              1              1              1
              1              1              1              1              1              1              1              1
              1              1              1              1              1              1              1
              D         0.0233         0.0233         0.0233         0.0233         0.0233         0.0233         0.0233
         0.0233         0.0233         0.0233         0.0233         0.0233         0.0233         0.0233         0.0233
         0.0233         0.0233         0.0233         0.0233         0.0233         0.0233         0.0233         0.0233
         0.0233         0.0233         0.0233         0.0233         0.0233         0.0233         0.0233         0.0233
         0.0233         0.0233         0.0233         0.0233         0.0233         0.0233         0.0233         0.0233
         0.0233         0.0233         0.0233         0.0233         0.0233         0.0233         0.0233         0.0233
         0.0233         0.0233         0.0233         0.0233         0.0233         0.0233         0.0233         0.0233
         0.0233         0.0233         0.0233         0.0233         0.0233         0.0233         0.0233
              Q              0              0              0              0              0              0              0
              0              0              0              0              0              0              0              0
              0              0              0              0              0              0              0              0
              0              0              0              0              0              0              0              0
              0              0              0              0              0              0              0              0
              0              0              0              0              0              0              0              0
              0              0              0              0              0              0              0              0
              0              0              0              0              0              0              0
              C          1e-12          1e-12          1e-12          1e-12       2.15e-14       2.15e-14          8e-15
       2.15e-14       2.15e-14       2.15e-14       2.15e-14       2.15e-14       2.15e-14          2e-14       2.15e-14
       2.15e-14       2.15e-14       2.15e-14       2.15e-14       2.15e-14       2.15e-14       2.15e-14       2.15e-14
       2.15e-14       2.15e-14          2e-14       2.15e-14       2.15e-14       2.15e-14       2.15e-14       2.15e-14
       2.15e-14       2.15e-14       2.15e-14       2.15e-14       2.15e-14       2.15e-14          1e-14        4.5e-16
       2.15e-14        1.4e-14       2.15e-14       2.15e-14       2.15e-14       2.15e-14       2.15e-14       2.15e-14
       2.15e-14       2.15e-14          1e-14        4.5e-16       2.15e-14        1.4e-14       2.15e-14       2.15e-14
       2.15e-14       2.15e-14       2.15e-14       2.15e-14       2.15e-14       2.15e-14    4.22235e-11


Number of Independent Voltage Source models: 1
          name V level 1 (Independent Voltage Source)
          type                
         level               1

Number of Independent Voltage Source instances: 87
          name             VDD         VDIFF0     VDIFF0_ALL        VDIFF15    VDIFF15_ALL           VLD1           VLD2
           VLD3           VLD4           VLD5         VMEAS2         VMEAS3         VMEAS6         VMEAS7         VMINUS
        VSINGLE    VSINGLE_ALL            VSS          VZERO     X12:VMEAS1    X12:VMEAS10    X12:VMEAS11    X12:VMEAS12
    X12:VMEAS13     X12:VMEAS2    X12:VMEAS22     X12:VMEAS3     X12:VMEAS4     X12:VMEAS5     X12:VMEAS6     X12:VMEAS7
     X12:VMEAS8     X12:VMEAS9      X1:VMEAS1     X1:VMEAS10     X1:VMEAS13     X1:VMEAS14     X1:VMEAS17      X1:VMEAS2
     X1:VMEAS28      X1:VMEAS3      X1:VMEAS4      X1:VMEAS5      X1:VMEAS6      X1:VMEAS7      X1:VMEAS8      X1:VMEAS9
      X2:VMEAS1     X2:VMEAS10     X2:VMEAS13     X2:VMEAS14     X2:VMEAS17      X2:VMEAS2     X2:VMEAS28      X2:VMEAS3
      X2:VMEAS4      X2:VMEAS5      X2:VMEAS6      X2:VMEAS7      X2:VMEAS8      X2:VMEAS9      X3:VMEAS1     X3:VMEAS10
     X3:VMEAS11     X3:VMEAS17     X3:VMEAS19      X3:VMEAS2     X3:VMEAS20     X3:VMEAS28      X3:VMEAS3      X3:VMEAS6
      X3:VMEAS7      X3:VMEAS8      X3:VMEAS9      X4:VMEAS1     X4:VMEAS10     X4:VMEAS11     X4:VMEAS17     X4:VMEAS19
      X4:VMEAS2     X4:VMEAS20     X4:VMEAS28      X4:VMEAS3      X4:VMEAS6      X4:VMEAS7      X4:VMEAS8      X4:VMEAS9
         model V level 1 (Independent Voltage Source)V level 1 (Independent Voltage Source)V level 1 (Independent Voltage Source)V level 1 (Independent Voltage Source)V level 1 (Independent Voltage Source)V level 1 (Independent Voltage Source)V level 1 (Independent Voltage Source)
V level 1 (Independent Voltage Source)V level 1 (Independent Voltage Source)V level 1 (Independent Voltage Source)V level 1 (Independent Voltage Source)V level 1 (Independent Voltage Source)V level 1 (Independent Voltage Source)V level 1 (Independent Voltage Source)V level 1 (Independent Voltage Source)
V level 1 (Independent Voltage Source)V level 1 (Independent Voltage Source)V level 1 (Independent Voltage Source)V level 1 (Independent Voltage Source)V level 1 (Independent Voltage Source)V level 1 (Independent Voltage Source)V level 1 (Independent Voltage Source)V level 1 (Independent Voltage Source)
V level 1 (Independent Voltage Source)V level 1 (Independent Voltage Source)V level 1 (Independent Voltage Source)V level 1 (Independent Voltage Source)V level 1 (Independent Voltage Source)V level 1 (Independent Voltage Source)V level 1 (Independent Voltage Source)V level 1 (Independent Voltage Source)
V level 1 (Independent Voltage Source)V level 1 (Independent Voltage Source)V level 1 (Independent Voltage Source)V level 1 (Independent Voltage Source)V level 1 (Independent Voltage Source)V level 1 (Independent Voltage Source)V level 1 (Independent Voltage Source)V level 1 (Independent Voltage Source)
V level 1 (Independent Voltage Source)V level 1 (Independent Voltage Source)V level 1 (Independent Voltage Source)V level 1 (Independent Voltage Source)V level 1 (Independent Voltage Source)V level 1 (Independent Voltage Source)V level 1 (Independent Voltage Source)V level 1 (Independent Voltage Source)
V level 1 (Independent Voltage Source)V level 1 (Independent Voltage Source)V level 1 (Independent Voltage Source)V level 1 (Independent Voltage Source)V level 1 (Independent Voltage Source)V level 1 (Independent Voltage Source)V level 1 (Independent Voltage Source)V level 1 (Independent Voltage Source)
V level 1 (Independent Voltage Source)V level 1 (Independent Voltage Source)V level 1 (Independent Voltage Source)V level 1 (Independent Voltage Source)V level 1 (Independent Voltage Source)V level 1 (Independent Voltage Source)V level 1 (Independent Voltage Source)V level 1 (Independent Voltage Source)
V level 1 (Independent Voltage Source)V level 1 (Independent Voltage Source)V level 1 (Independent Voltage Source)V level 1 (Independent Voltage Source)V level 1 (Independent Voltage Source)V level 1 (Independent Voltage Source)V level 1 (Independent Voltage Source)V level 1 (Independent Voltage Source)
V level 1 (Independent Voltage Source)V level 1 (Independent Voltage Source)V level 1 (Independent Voltage Source)V level 1 (Independent Voltage Source)V level 1 (Independent Voltage Source)V level 1 (Independent Voltage Source)V level 1 (Independent Voltage Source)V level 1 (Independent Voltage Source)
V level 1 (Independent Voltage Source)V level 1 (Independent Voltage Source)V level 1 (Independent Voltage Source)V level 1 (Independent Voltage Source)V level 1 (Independent Voltage Source)V level 1 (Independent Voltage Source)V level 1 (Independent Voltage Source)V level 1 (Independent Voltage Source)
   DCSOURCETYPE              6              6              6              6              6              6              6
              6              6              6              6              6              6              6              6
              6              6              6              6              6              6              6              6
              6              6              6              6              6              6              6              6
              6              6              6              6              6              6              6              6
              6              6              6              6              6              6              6              6
              6              6              6              6              6              6              6              6
              6              6              6              6              6              6              6              6
              6              6              6              6              6              6              6              6
              6              6              6              6              6              6              6              6
              6              6              6              6              6              6              6              6
   ACSOURCETYPE              7              7              7              7              7              7              7
              7              7              7              7              7              7              7              7
              7              7              7              7              7              7              7              7
              7              7              7              7              7              7              7              7
              7              7              7              7              7              7              7              7
              7              7              7              7              7              7              7              7
              7              7              7              7              7              7              7              7
              7              7              7              7              7              7              7              7
              7              7              7              7              7              7              7              7
              7              7              7              7              7              7              7              7
              7              7              7              7              7              7              7              7
TRANSIENTSOURCETYPE              6              6              6              6              6              6              6
              6              6              6              6              6              6              6              2
              6              6              6              6              6              6              6              6
              6              6              6              6              6              6              6              6
              6              6              6              6              6              6              6              6
              6              6              6              6              6              6              6              6
              6              6              6              6              6              6              6              6
              6              6              6              6              6              6              6              6
              6              6              6              6              6              6              6              6
              6              6              6              6              6              6              6              6
              6              6              6              6              6              6              6              6
          PHASE              0              0              0              0              0              0              0
              0              0              0              0              0              0              0        3.3e-05
              0              0              0              0              0              0              0              0
              0              0              0              0              0              0              0              0
              0              0              0              0              0              0              0              0
              0              0              0              0              0              0              0              0
              0              0              0              0              0              0              0              0
              0              0              0              0              0              0              0              0
              0              0              0              0              0              0              0              0
              0              0              0              0              0              0              0              0
              0              0              0              0              0              0              0              0
             TF              0              0              0              0              0              0              0
              0              0              0              0              0              0              0          1e-08
              0              0              0              0              0              0              0              0
              0              0              0              0              0              0              0              0
              0              0              0              0              0              0              0              0
              0              0              0              0              0              0              0              0
              0              0              0              0              0              0              0              0
              0              0              0              0              0              0              0              0
              0              0              0              0              0              0              0              0
              0              0              0              0              0              0              0              0
              0              0              0              0              0              0              0              0
           DATA                                                                                                         
                                                                                                                        
                                                                                                                        
                                                                                                                        
                                                                                                                        
                                                                                                                        
                                                                                                                        
                                                                                                                        
                                                                                                                        
                                                                                                                        
                                                                                                                        
             FS              0              0              0              0              0              0              0
              0              0              0              0              0              0              0          1e-08
              0              0              0              0              0              0              0              0
              0              0              0              0              0              0              0              0
              0              0              0              0              0              0              0              0
              0              0              0              0              0              0              0              0
              0              0              0              0              0              0              0              0
              0              0              0              0              0              0              0              0
              0              0              0              0              0              0              0              0
              0              0              0              0              0              0              0              0
              0              0              0              0              0              0              0              0
             VA              0              0              0              0              0              0              0
              0              0              0              0              0              0              0            0.1
              0              0              0              0              0              0              0              0
              0              0              0              0              0              0              0              0
              0              0              0              0              0              0              0              0
              0              0              0              0              0              0              0              0
              0              0              0              0              0              0              0              0
              0              0              0              0              0              0              0              0
              0              0              0              0              0              0              0              0
              0              0              0              0              0              0              0              0
              0              0              0              0              0              0              0              0
        ACPHASE              0              0              0              0              0              0              0
              0              0              0              0              0              0              0              0
              0              0              0              0              0              0              0              0
              0              0              0              0              0              0              0              0
              0              0              0              0              0              0              0              0
              0              0              0              0              0              0              0              0
              0              0              0              0              0              0              0              0
              0              0              0              0              0              0              0              0
              0              0              0              0              0              0              0              0
              0              0              0              0              0              0              0              0
              0              0              0              0              0              0              0              0
          THETA              0              0              0              0              0              0              0
              0              0              0              0              0              0              0          1e-08
              0              0              0              0              0              0              0              0
              0              0              0              0              0              0              0              0
              0              0              0              0              0              0              0              0
              0              0              0              0              0              0              0              0
              0              0              0              0              0              0              0              0
              0              0              0              0              0              0              0              0
              0              0              0              0              0              0              0              0
              0              0              0              0              0              0              0              0
              0              0              0              0              0              0              0              0
            MDI              0              0              0              0              0              0              0
              0              0              0              0              0              0              0          1e-08
              0              0              0              0              0              0              0              0
              0              0              0              0              0              0              0              0
              0              0              0              0              0              0              0              0
              0              0              0              0              0              0              0              0
              0              0              0              0              0              0              0              0
              0              0              0              0              0              0              0              0
              0              0              0              0              0              0              0              0
              0              0              0              0              0              0              0              0
              0              0              0              0              0              0              0              0
            NUM              0              0              0              0              0              0              0
              0              0              0              0              0              0              0              0
              0              0              0              0              0              0              0              0
              0              0              0              0              0              0              0              0
              0              0              0              0              0              0              0              0
              0              0              0              0              0              0              0              0
              0              0              0              0              0              0              0              0
              0              0              0              0              0              0              0              0
              0              0              0              0              0              0              0              0
              0              0              0              0              0              0              0              0
              0              0              0              0              0              0              0              0
             V2              0              0              0              0              0              0              0
              0              0              0              0              0              0              0            0.1
              0              0              0              0              0              0              0              0
              0              0              0              0              0              0              0              0
              0              0              0              0              0              0              0              0
              0              0              0              0              0              0              0              0
              0              0              0              0              0              0              0              0
              0              0              0              0              0              0              0              0
              0              0              0              0              0              0              0              0
              0              0              0              0              0              0              0              0
              0              0              0              0              0              0              0              0
           FREQ              0              0              0              0              0              0              0
              0              0              0              0              0              0              0          1e-08
              0              0              0              0              0              0              0              0
              0              0              0              0              0              0              0              0
              0              0              0              0              0              0              0              0
              0              0              0              0              0              0              0              0
              0              0              0              0              0              0              0              0
              0              0              0              0              0              0              0              0
              0              0              0              0              0              0              0              0
              0              0              0              0              0              0              0              0
              0              0              0              0              0              0              0              0
            VHI              0              0              0              0              0              0              0
              0              0              0              0              0              0              0           -0.1
              0              0              0              0              0              0              0              0
              0              0              0              0              0              0              0              0
              0              0              0              0              0              0              0              0
              0              0              0              0              0              0              0              0
              0              0              0              0              0              0              0              0
              0              0              0              0              0              0              0              0
              0              0              0              0              0              0              0              0
              0              0              0              0              0              0              0              0
              0              0              0              0              0              0              0              0
             Z0             50             50             50             50             50             50             50
             50             50             50             50             50             50             50             50
             50             50             50             50             50             50             50             50
             50             50             50             50             50             50             50             50
             50             50             50             50             50             50             50             50
             50             50             50             50             50             50             50             50
             50             50             50             50             50             50             50             50
             50             50             50             50             50             50             50             50
             50             50             50             50             50             50             50             50
             50             50             50             50             50             50             50             50
             50             50             50             50             50             50             50             50
             V1              0              0              0              0              0              0              0
              0              0              0              0              0              0              0           -0.1
              0              0              0              0              0              0              0              0
              0              0              0              0              0              0              0              0
              0              0              0              0              0              0              0              0
              0              0              0              0              0              0              0              0
              0              0              0              0              0              0              0              0
              0              0              0              0              0              0              0              0
              0              0              0              0              0              0              0              0
              0              0              0              0              0              0              0              0
              0              0              0              0              0              0              0              0
             TR              0              0              0              0              0              0              0
              0              0              0              0              0              0              0          1e-08
              0              0              0              0              0              0              0              0
              0              0              0              0              0              0              0              0
              0              0              0              0              0              0              0              0
              0              0              0              0              0              0              0              0
              0              0              0              0              0              0              0              0
              0              0              0              0              0              0              0              0
              0              0              0              0              0              0              0              0
              0              0              0              0              0              0              0              0
              0              0              0              0              0              0              0              0
           TAU1              0              0              0              0              0              0              0
              0              0              0              0              0              0              0          1e-08
              0              0              0              0              0              0              0              0
              0              0              0              0              0              0              0              0
              0              0              0              0              0              0              0              0
              0              0              0              0              0              0              0              0
              0              0              0              0              0              0              0              0
              0              0              0              0              0              0              0              0
              0              0              0              0              0              0              0              0
              0              0              0              0              0              0              0              0
              0              0              0              0              0              0              0              0
             PW              0              0              0              0              0              0              0
              0              0              0              0              0              0              0        3.3e-05
              0              0              0              0              0              0              0              0
              0              0              0              0              0              0              0              0
              0              0              0              0              0              0              0              0
              0              0              0              0              0              0              0              0
              0              0              0              0              0              0              0              0
              0              0              0              0              0              0              0              0
              0              0              0              0              0              0              0              0
              0              0              0              0              0              0              0              0
              0              0              0              0              0              0              0              0
             V0              0              0              0              0              0              0              0
              0              0              0              0              0              0              0           -0.1
              0              0              0              0              0              0              0              0
              0              0              0              0              0              0              0              0
              0              0              0              0              0              0              0              0
              0              0              0              0              0              0              0              0
              0              0              0              0              0              0              0              0
              0              0              0              0              0              0              0              0
              0              0              0              0              0              0              0              0
              0              0              0              0              0              0              0              0
              0              0              0              0              0              0              0              0
           TAU2              0              0              0              0              0              0              0
              0              0              0              0              0              0              0        3.3e-05
              0              0              0              0              0              0              0              0
              0              0              0              0              0              0              0              0
              0              0              0              0              0              0              0              0
              0              0              0              0              0              0              0              0
              0              0              0              0              0              0              0              0
              0              0              0              0              0              0              0              0
              0              0              0              0              0              0              0              0
              0              0              0              0              0              0              0              0
              0              0              0              0              0              0              0              0
             TD              0              0              0              0              0              0              0
              0              0              0              0              0              0              0          1e-06
              0              0              0              0              0              0              0              0
              0              0              0              0              0              0              0              0
              0              0              0              0              0              0              0              0
              0              0              0              0              0              0              0              0
              0              0              0              0              0              0              0              0
              0              0              0              0              0              0              0              0
              0              0              0              0              0              0              0              0
              0              0              0              0              0              0              0              0
              0              0              0              0              0              0              0              0
            PER              0              0              0              0              0              0              0
              0              0              0              0              0              0              0        6.6e-05
              0              0              0              0              0              0              0              0
              0              0              0              0              0              0              0              0
              0              0              0              0              0              0              0              0
              0              0              0              0              0              0              0              0
              0              0              0              0              0              0              0              0
              0              0              0              0              0              0              0              0
              0              0              0              0              0              0              0              0
              0              0              0              0              0              0              0              0
              0              0              0              0              0              0              0              0
           DCV0            3.3              0              0              0              0           1.65           1.65
           1.65           1.65           1.65              0              0              0              0              0
              0              0              0              0              0              0              0              0
              0              0              0              0              0              0              0              0
              0              0              0              0              0              0              0              0
              0              0              0              0              0              0              0              0
              0              0              0              0              0              0              0              0
              0              0              0              0              0              0              0              0
              0              0              0              0              0              0              0              0
              0              0              0              0              0              0              0              0
              0              0              0              0              0              0              0              0
             RB              1              1              1              1              1              1              1
              1              1              1              1              1              1              1              1
              1              1              1              1              1              1              1              1
              1              1              1              1              1              1              1              1
              1              1              1              1              1              1              1              1
              1              1              1              1              1              1              1              1
              1              1              1              1              1              1              1              1
              1              1              1              1              1              1              1              1
              1              1              1              1              1              1              1              1
              1              1              1              1              1              1              1              1
              1              1              1              1              1              1              1              1
              V              0              0              0              0              0              0              0
              0              0              0              0              0              0              0              0
              0              0              0              0              0              0              0              0
              0              0              0              0              0              0              0              0
              0              0              0              0              0              0              0              0
              0              0              0              0              0              0              0              0
              0              0              0              0              0              0              0              0
              0              0              0              0              0              0              0              0
              0              0              0              0              0              0              0              0
              0              0              0              0              0              0              0              0
              0              0              0              0              0              0              0              0
            TD2              0              0              0              0              0              0              0
              0              0              0              0              0              0              0          1e-08
              0              0              0              0              0              0              0              0
              0              0              0              0              0              0              0              0
              0              0              0              0              0              0              0              0
              0              0              0              0              0              0              0              0
              0              0              0              0              0              0              0              0
              0              0              0              0              0              0              0              0
              0              0              0              0              0              0              0              0
              0              0              0              0              0              0              0              0
              0              0              0              0              0              0              0              0
           PORT              0              0              0              0              0              0              0
              0              0              0              0              0              0              0              0
              0              0              0              0              0              0              0              0
              0              0              0              0              0              0              0              0
              0              0              0              0              0              0              0              0
              0              0              0              0              0              0              0              0
              0              0              0              0              0              0              0              0
              0              0              0              0              0              0              0              0
              0              0              0              0              0              0              0              0
              0              0              0              0              0              0              0              0
              0              0              0              0              0              0              0              0
          ACMAG              0              0              0              0              0              0              0
              0              0              0              0              0              0              0              1
              0              0              0              0              0              0              0              0
              0              0              0              0              0              0              0              0
              0              0              0              0              0              0              0              0
              0              0              0              0              0              0              0              0
              0              0              0              0              0              0              0              0
              0              0              0              0              0              0              0              0
              0              0              0              0              0              0              0              0
              0              0              0              0              0              0              0              0
              0              0              0              0              0              0              0              0
             FC              0              0              0              0              0              0              0
              0              0              0              0              0              0              0          1e-06
              0              0              0              0              0              0              0              0
              0              0              0              0              0              0              0              0
              0              0              0              0              0              0              0              0
              0              0              0              0              0              0              0              0
              0              0              0              0              0              0              0              0
              0              0              0              0              0              0              0              0
              0              0              0              0              0              0              0              0
              0              0              0              0              0              0              0              0
              0              0              0              0              0              0              0              0
              R              0              0              0              0              0              0              0
              0              0              0              0              0              0              0              0
              0              0              0              0              0              0              0              0
              0              0              0              0              0              0              0              0
              0              0              0              0              0              0              0              0
              0              0              0              0              0              0              0              0
              0              0              0              0              0              0              0              0
              0              0              0              0              0              0              0              0
              0              0              0              0              0              0              0              0
              0              0              0              0              0              0              0              0
              0              0              0              0              0              0              0              0
              T              0              0              0              0              0              0              0
              0              0              0              0              0              0              0              0
              0              0              0              0              0              0              0              0
              0              0              0              0              0              0              0              0
              0              0              0              0              0              0              0              0
              0              0              0              0              0              0              0              0
              0              0              0              0              0              0              0              0
              0              0              0              0              0              0              0              0
              0              0              0              0              0              0              0              0
              0              0              0              0              0              0              0              0
              0              0              0              0              0              0              0              0
            TD1              0              0              0              0              0              0              0
              0              0              0              0              0              0              0          1e-06
              0              0              0              0              0              0              0              0
              0              0              0              0              0              0              0              0
              0              0              0              0              0              0              0              0
              0              0              0              0              0              0              0              0
              0              0              0              0              0              0              0              0
              0              0              0              0              0              0              0              0
              0              0              0              0              0              0              0              0
              0              0              0              0              0              0              0              0
              0              0              0              0              0              0              0              0
            VLO              0              0              0              0              0              0              0
              0              0              0              0              0              0              0            0.1
              0              0              0              0              0              0              0              0
              0              0              0              0              0              0              0              0
              0              0              0              0              0              0              0              0
              0              0              0              0              0              0              0              0
              0              0              0              0              0              0              0              0
              0              0              0              0              0              0              0              0
              0              0              0              0              0              0              0              0
              0              0              0              0              0              0              0              0
              0              0              0              0              0              0              0              0
        TSAMPLE              0              0              0              0              0              0              0
              0              0              0              0              0              0              0        3.3e-05
              0              0              0              0              0              0              0              0
              0              0              0              0              0              0              0              0
              0              0              0              0              0              0              0              0
              0              0              0              0              0              0              0              0
              0              0              0              0              0              0              0              0
              0              0              0              0              0              0              0              0
              0              0              0              0              0              0              0              0
              0              0              0              0              0              0              0              0
              0              0              0              0              0              0              0              0


Number of Linear Voltage Controlled Voltage Source models: 1
          name E level 1 (Linear Voltage Controlled Voltage Source)
          type                
         level               1

Number of Linear Voltage Controlled Voltage Source instances: 3
          name              E1             E2             E5
         model E level 1 (Linear Voltage Controlled Voltage Source)E level 1 (Linear Voltage Controlled Voltage Source)E level 1 (Linear Voltage Controlled Voltage Source)
              G              1              1              1


Number of Resistor models: 1
          name R level 1 (Resistor)
          type                
         level               1
           TNOM             27
           DEFW          1e-05
              R              1
            RSH              0
            TCE              0
            TC2              0
         NARROW              0

            TC1              0

Number of Resistor instances: 122
          name              R5             R6             R7             R8             R9         X12:R1        X12:R12
        X12:R19         X12:R3         X12:R4         X12:R5         X12:R7         X12:R8         X12:R9     X12:XC2:R1
  X12:XQ10:RSUB  X12:XQ11:RSUB   X12:XQ1:RSUB   X12:XQ2:RSUB   X12:XQ5:RSUB   X12:XQ6:RSUB   X12:XQ7:RSUB   X12:XQ8:RSUB
   X12:XQ9:RSUB          X1:R1         X1:R10          X1:R2         X1:R20         X1:R21         X1:R23         X1:R24
         X1:R26         X1:R28          X1:R3          X1:R4          X1:R5          X1:R6          X1:R8          X1:R9
   X1:XQ10:RSUB   X1:XQ11:RSUB   X1:XQ14:RSUB    X1:XQ1:RSUB    X1:XQ2:RSUB    X1:XQ3:RSUB    X1:XQ4:RSUB    X1:XQ5:RSUB
    X1:XQ6:RSUB    X1:XQ7:RSUB    X1:XQ8:RSUB    X1:XQ9:RSUB          X2:R1         X2:R10          X2:R2         X2:R20
         X2:R21         X2:R23         X2:R24         X2:R26         X2:R28          X2:R3          X2:R4          X2:R5
          X2:R6          X2:R8          X2:R9   X2:XQ10:RSUB   X2:XQ11:RSUB   X2:XQ14:RSUB    X2:XQ1:RSUB    X2:XQ2:RSUB
    X2:XQ3:RSUB    X2:XQ4:RSUB    X2:XQ5:RSUB    X2:XQ6:RSUB    X2:XQ7:RSUB    X2:XQ8:RSUB    X2:XQ9:RSUB          X3:R1
         X3:R10         X3:R12         X3:R15          X3:R2          X3:R3          X3:R4          X3:R5          X3:R6
          X3:R7          X3:R8          X3:R9   X3:XQ10:RSUB   X3:XQ11:RSUB   X3:XQ12:RSUB    X3:XQ1:RSUB    X3:XQ3:RSUB
    X3:XQ4:RSUB    X3:XQ5:RSUB    X3:XQ7:RSUB    X3:XQ8:RSUB    X3:XQ9:RSUB          X4:R1         X4:R10         X4:R12
         X4:R15          X4:R2          X4:R3          X4:R4          X4:R5          X4:R6          X4:R7          X4:R8
          X4:R9   X4:XQ10:RSUB   X4:XQ11:RSUB   X4:XQ12:RSUB    X4:XQ1:RSUB    X4:XQ3:RSUB    X4:XQ4:RSUB    X4:XQ5:RSUB
    X4:XQ7:RSUB    X4:XQ8:RSUB    X4:XQ9:RSUB
         model R level 1 (Resistor)R level 1 (Resistor)R level 1 (Resistor)R level 1 (Resistor)R level 1 (Resistor)R level 1 (Resistor)R level 1 (Resistor)
R level 1 (Resistor)R level 1 (Resistor)R level 1 (Resistor)R level 1 (Resistor)R level 1 (Resistor)R level 1 (Resistor)R level 1 (Resistor)R level 1 (Resistor)
R level 1 (Resistor)R level 1 (Resistor)R level 1 (Resistor)R level 1 (Resistor)R level 1 (Resistor)R level 1 (Resistor)R level 1 (Resistor)R level 1 (Resistor)
R level 1 (Resistor)R level 1 (Resistor)R level 1 (Resistor)R level 1 (Resistor)R level 1 (Resistor)R level 1 (Resistor)R level 1 (Resistor)R level 1 (Resistor)
R level 1 (Resistor)R level 1 (Resistor)R level 1 (Resistor)R level 1 (Resistor)R level 1 (Resistor)R level 1 (Resistor)R level 1 (Resistor)R level 1 (Resistor)
R level 1 (Resistor)R level 1 (Resistor)R level 1 (Resistor)R level 1 (Resistor)R level 1 (Resistor)R level 1 (Resistor)R level 1 (Resistor)R level 1 (Resistor)
R level 1 (Resistor)R level 1 (Resistor)R level 1 (Resistor)R level 1 (Resistor)R level 1 (Resistor)R level 1 (Resistor)R level 1 (Resistor)R level 1 (Resistor)
R level 1 (Resistor)R level 1 (Resistor)R level 1 (Resistor)R level 1 (Resistor)R level 1 (Resistor)R level 1 (Resistor)R level 1 (Resistor)R level 1 (Resistor)
[...]
            RCI           51.6           51.6           5.16           51.6           51.6           51.6           51.6           51.6           51.6           25.8           51.6           51.6           51.6           51.6           51.6           51.6           51.6           51.6           51.6           51.6           51.6           25.8           51.6           51.6           51.6           51.6           51.6           51.6           51.6           51.6           51.6           51.6           51.6           51.6            8.6           51.6           51.6           51.6           51.6           51.6           51.6           51.6           51.6           51.6            8.6           51.6           51.6           51.6           51.6           51.6           51.6           51.6           51.6
           EANC           1.12           1.12           1.12           1.12           1.12           1.12           1.12           1.12           1.12           1.12           1.12           1.12           1.12           1.12           1.12           1.12           1.12           1.12           1.12           1.12           1.12           1.12           1.12           1.12           1.12           1.12           1.12           1.12           1.12           1.12           1.12           1.12           1.12           1.12           1.12           1.12           1.12           1.12           1.12           1.12           1.12           1.12           1.12           1.12           1.12           1.12           1.12           1.12           1.12           1.12           1.12           1.12           1.12

           EANS           1.12           1.12           1.12           1.12           1.12           1.12           1.12           1.12           1.12           1.12           1.12           1.12           1.12           1.12           1.12           1.12           1.12           1.12           1.12           1.12           1.12           1.12           1.12           1.12           1.12           1.12           1.12           1.12           1.12           1.12           1.12           1.12           1.12           1.12           1.12           1.12           1.12           1.12           1.12           1.12           1.12           1.12           1.12           1.12           1.12           1.12           1.12           1.12           1.12           1.12           1.12           1.12           1.12
           DEAR              0              0              0              0              0              0              0              0              0              0              0              0              0              0              0              0              0              0              0              0              0              0              0              0              0              0              0              0              0              0              0              0              0              0              0              0              0              0              0              0              0              0              0              0              0              0              0              0              0              0              0              0              0
            XIS            2.3            2.3            2.3            2.3            2.3            2.3            2.3            2.3            2.3            2.3            2.3            2.3            2.3            2.3            2.3            2.3            2.3            2.3            2.3            2.3            2.3            2.3            2.3            2.3            2.3            2.3            2.3            2.3            2.3            2.3            2.3            2.3            2.3            2.3            2.3            2.3            2.3            2.3            2.3            2.3            2.3            2.3            2.3            2.3            2.3            2.3            2.3            2.3            2.3            2.3            2.3            2.3            2.3
            PNP              0              0              0              0              0              0              0              0              0              0              0              0              0              0              0              0              0              0              0              0              0              0              0              0              0              0              0              0              0              0              0              0              0              0              0              0              0              0              0              0              0              0              0              0              0              0              0              0              0              0              0              0              0
           IBBE          1e-06          1e-06          1e-06          1e-06          1e-06          1e-06          1e-06          1e-06          1e-06          1e-06          1e-06          1e-06          1e-06          1e-06          1e-06          1e-06          1e-06          1e-06          1e-06          1e-06          1e-06          1e-06          1e-06          1e-06          1e-06          1e-06          1e-06          1e-06          1e-06          1e-06          1e-06          1e-06          1e-06          1e-06          1e-06          1e-06          1e-06          1e-06          1e-06          1e-06          1e-06          1e-06          1e-06          1e-06          1e-06          1e-06          1e-06          1e-06          1e-06          1e-06          1e-06          1e-06          1e-06
           XISR              0              0              0              0              0              0              0              0              0              0              0              0              0              0              0              0              0              0              0              0              0              0              0              0              0              0              0              0              0              0              0              0              0              0              0              0              0              0              0              0              0              0              0              0              0              0              0              0              0              0              0              0              0
            QCO          1e-18          1e-18          1e-18          1e-18          1e-18          1e-18          1e-18          1e-18          1e-18          1e-18          1e-18          1e-18          1e-18          1e-18          1e-18          1e-18          1e-18          1e-18          1e-18          1e-18          1e-18          1e-18          1e-18          1e-18          1e-18          1e-18          1e-18          1e-18          1e-18          1e-18          1e-18          1e-18          1e-18          1e-18          1e-18          1e-18          1e-18          1e-18          1e-18          1e-18          1e-18          1e-18          1e-18          1e-18          1e-18          1e-18          1e-18          1e-18          1e-18          1e-18          1e-18          1e-18          1e-18
           IBCN        2.5e-16        2.5e-16        2.5e-15        2.5e-16        2.5e-16        2.5e-16        2.5e-16        2.5e-16        2.5e-16          5e-16        2.5e-16        2.5e-16        2.5e-16        2.5e-16        2.5e-16        2.5e-16        2.5e-16        2.5e-16        2.5e-16        2.5e-16        2.5e-16          5e-16        2.5e-16        2.5e-16        2.5e-16        2.5e-16        2.5e-16        2.5e-16        2.5e-16        2.5e-16        2.5e-16        2.5e-16        2.5e-16        2.5e-16        1.5e-15        2.5e-16        2.5e-16        2.5e-16        2.5e-16        2.5e-16        2.5e-16        2.5e-16        2.5e-16        2.5e-16        1.5e-15        2.5e-16        2.5e-16        2.5e-16        2.5e-16        2.5e-16        2.5e-16        2.5e-16        2.5e-16

           TAVC       -0.00188       -0.00188       -0.00188       -0.00188       -0.00188       -0.00188       -0.00188       -0.00188       -0.00188       -0.00188       -0.00188       -0.00188       -0.00188       -0.00188       -0.00188       -0.00188       -0.00188       -0.00188       -0.00188       -0.00188       -0.00188       -0.00188       -0.00188       -0.00188       -0.00188       -0.00188       -0.00188       -0.00188       -0.00188       -0.00188       -0.00188       -0.00188       -0.00188       -0.00188       -0.00188       -0.00188       -0.00188       -0.00188       -0.00188       -0.00188       -0.00188       -0.00188       -0.00188       -0.00188       -0.00188       -0.00188       -0.00188       -0.00188       -0.00188       -0.00188       -0.00188       -0.00188       -0.00188

Number of VBIC 1.3 4T instances: 53
          name X12:XQ10:QNPN13G2X12:XQ11:QNPN13G2X12:XQ1:QNPN13G2X12:XQ2:QNPN13G2X12:XQ5:QNPN13G2X12:XQ6:QNPN13G2X12:XQ7:QNPN13G2
X12:XQ8:QNPN13G2X12:XQ9:QNPN13G2X1:XQ10:QNPN13G2X1:XQ11:QNPN13G2X1:XQ14:QNPN13G2X1:XQ1:QNPN13G2X1:XQ2:QNPN13G2X1:XQ3:QNPN13G2
X1:XQ4:QNPN13G2X1:XQ5:QNPN13G2X1:XQ6:QNPN13G2X1:XQ7:QNPN13G2X1:XQ8:QNPN13G2X1:XQ9:QNPN13G2X2:XQ10:QNPN13G2X2:XQ11:QNPN13G2
X2:XQ14:QNPN13G2X2:XQ1:QNPN13G2X2:XQ2:QNPN13G2X2:XQ3:QNPN13G2X2:XQ4:QNPN13G2X2:XQ5:QNPN13G2X2:XQ6:QNPN13G2X2:XQ7:QNPN13G2
X2:XQ8:QNPN13G2X2:XQ9:QNPN13G2X3:XQ10:QNPN13G2X3:XQ11:QNPN13G2X3:XQ12:QNPN13G2X3:XQ1:QNPN13G2X3:XQ3:QNPN13G2X3:XQ4:QNPN13G2
X3:XQ5:QNPN13G2X3:XQ7:QNPN13G2X3:XQ8:QNPN13G2X3:XQ9:QNPN13G2X4:XQ10:QNPN13G2X4:XQ11:QNPN13G2X4:XQ12:QNPN13G2X4:XQ1:QNPN13G2
X4:XQ3:QNPN13G2X4:XQ4:QNPN13G2X4:XQ5:QNPN13G2X4:XQ7:QNPN13G2X4:XQ8:QNPN13G2X4:XQ9:QNPN13G2
         model X12:XQ10:NPN13G2_NX_VBICX12:XQ11:NPN13G2_NX_VBICX12:XQ1:NPN13G2_NX_VBICX12:XQ2:NPN13G2_NX_VBICX12:XQ5:NPN13G2_NX_VBICX12:XQ6:NPN13G2_NX_VBICX12:XQ7:NPN13G2_NX_VBIC
X12:XQ8:NPN13G2_NX_VBICX12:XQ9:NPN13G2_NX_VBICX1:XQ10:NPN13G2_NX_VBICX1:XQ11:NPN13G2_NX_VBICX1:XQ14:NPN13G2_NX_VBICX1:XQ1:NPN13G2_NX_VBICX1:XQ2:NPN13G2_NX_VBICX1:XQ3:NPN13G2_NX_VBIC
X1:XQ4:NPN13G2_NX_VBICX1:XQ5:NPN13G2_NX_VBICX1:XQ6:NPN13G2_NX_VBICX1:XQ7:NPN13G2_NX_VBICX1:XQ8:NPN13G2_NX_VBICX1:XQ9:NPN13G2_NX_VBICX2:XQ10:NPN13G2_NX_VBICX2:XQ11:NPN13G2_NX_VBIC
X2:XQ14:NPN13G2_NX_VBICX2:XQ1:NPN13G2_NX_VBICX2:XQ2:NPN13G2_NX_VBICX2:XQ3:NPN13G2_NX_VBICX2:XQ4:NPN13G2_NX_VBICX2:XQ5:NPN13G2_NX_VBICX2:XQ6:NPN13G2_NX_VBICX2:XQ7:NPN13G2_NX_VBIC
X2:XQ8:NPN13G2_NX_VBICX2:XQ9:NPN13G2_NX_VBICX3:XQ10:NPN13G2_NX_VBICX3:XQ11:NPN13G2_NX_VBICX3:XQ12:NPN13G2_NX_VBICX3:XQ1:NPN13G2_NX_VBICX3:XQ3:NPN13G2_NX_VBICX3:XQ4:NPN13G2_NX_VBIC
X3:XQ5:NPN13G2_NX_VBICX3:XQ7:NPN13G2_NX_VBICX3:XQ8:NPN13G2_NX_VBICX3:XQ9:NPN13G2_NX_VBICX4:XQ10:NPN13G2_NX_VBICX4:XQ11:NPN13G2_NX_VBICX4:XQ12:NPN13G2_NX_VBICX4:XQ1:NPN13G2_NX_VBIC
X4:XQ3:NPN13G2_NX_VBICX4:XQ4:NPN13G2_NX_VBICX4:XQ5:NPN13G2_NX_VBICX4:XQ7:NPN13G2_NX_VBICX4:XQ8:NPN13G2_NX_VBICX4:XQ9:NPN13G2_NX_VBIC
            OFF              0              0              0              0              0              0              0
              0              0              0              0              0              0              0              0
              0              0              0              0              0              0              0              0
              0              0              0              0              0              0              0              0
              0              0              0              0              0              0              0              0
              0              0              0              0              0              0              0              0
              0              0              0              0              0              0
       SW_NOISE              1              1              1              1              1              1              1
              1              1              1              1              1              1              1              1
              1              1              1              1              1              1              1              1
              1              1              1              1              1              1              1              1
              1              1              1              1              1              1              1              1
              1              1              1              1              1              1              1              1
              1              1              1              1              1              1
          SW_ET              1              1              1              1              1              1              1
              1              1              1              1              1              1              1              1
              1              1              1              1              1              1              1              1
              1              1              1              1              1              1              1              1
              1              1              1              1              1              1              1              1
              1              1              1              1              1              1              1              1
              1              1              1              1              1              1
          DTEMP              0              0              0              0              0              0              0
              0              0              0              0              0              0              0              0
              0              0              0              0              0              0              0              0
              0              0              0              0              0              0              0              0
              0              0              0              0              0              0              0              0
              0              0              0              0              0              0              0              0
              0              0              0              0              0              0
            DTA              0              0              0              0              0              0              0
              0              0              0              0              0              0              0              0
              0              0              0              0              0              0              0              0
              0              0              0              0              0              0              0              0
              0              0              0              0              0              0              0              0
              0              0              0              0              0              0              0              0
              0              0              0              0              0              0
          TRISE              0              0              0              0              0              0              0
              0              0              0              0              0              0              0              0
              0              0              0              0              0              0              0              0
              0              0              0              0              0              0              0              0
              0              0              0              0              0              0              0              0
              0              0              0              0              0              0              0              0
              0              0              0              0              0              0
              M              1              1              1              1              1              1              1
              1              1              1              1              1              1              1              1
              1              1              1              1              1              1              1              1
              1              1              1              1              1              1              1              1
              1              1              1              1              1              1              1              1
              1              1              1              1              1              1              1              1
              1              1              1              1              1              1
XYCEADMSINSTTEMP         300.15         300.15         300.15         300.15         300.15         300.15         300.15
         300.15         300.15         300.15         300.15         300.15         300.15         300.15         300.15
         300.15         300.15         300.15         300.15         300.15         300.15         300.15         300.15
         300.15         300.15         300.15         300.15         300.15         300.15         300.15         300.15
         300.15         300.15         300.15         300.15         300.15         300.15         300.15         300.15
         300.15         300.15         300.15         300.15         300.15         300.15         300.15         300.15
         300.15         300.15         300.15         300.15         300.15         300.15

------------------------------------------------------------

***** Solution Summary *****
	Number Successful Steps Taken:		1
	Number Failed Steps Attempted:		0
	Number Jacobians Evaluated:		423
	Number Linear Solves:			423
	Number Failed Linear Solves:		2
	Number Residual Evaluations:		451
	Number Nonlinear Convergence Failures:	0
	Total Residual Load Time:		0.256201 seconds
	Total Jacobian Load Time:		0.0649757 seconds
	Total Linear Solution Time:		0.245875 seconds


***** Total Simulation Solvers Run Time: 0.724802 seconds
***** Total Elapsed Run Time:            0.856818 seconds
*****
***** End of Xyce(TM) Simulation
*****

Timing summary of 1 processor
                 Stats                   Count       CPU Time              Wall Time
---------------------------------------- ----- --------------------- ---------------------
Xyce                                         1        0.786 (100.0%)        0.862 (100.0%)
  Analysis                                   1        0.688 (87.45%)        0.725 (84.06%)
    DC Sweep                                 1        0.688 (87.44%)        0.725 (84.05%)
      Solve                                  1        0.669 (85.06%)        0.703 (81.51%)
        Residual                           451        0.249 (31.62%)        0.268 (31.04%)
        Jacobian                           423        0.065 ( 8.30%)        0.069 ( 7.99%)
        Linear Solve                       423        0.243 (30.96%)        0.247 (28.64%)
      Successful Step                        1        0.018 ( 2.35%)        0.022 ( 2.51%)
  Netlist Import                             1        0.080 (10.21%)        0.096 (11.12%)
    Parse Context                            1        0.017 ( 2.10%)        0.027 ( 3.17%)
    Distribute Devices                       1        0.059 ( 7.56%)        0.062 ( 7.18%)
    Verify Devices                           1        0.000 (<0.01%)        0.000 (<0.01%)
    Instantiate                              1        0.003 ( 0.40%)        0.003 ( 0.37%)
  Late Initialization                        1        0.016 ( 2.09%)        0.028 ( 3.23%)
    Global Indices                           1        0.002 ( 0.28%)        0.002 ( 0.26%)
  Setup Matrix Structure                     1        0.002 ( 0.32%)        0.003 ( 0.34%)

